
     RDKit          3D

 29 30  0  2  0  0  0  0  0  0999 V2000
   20.6476    5.5604    2.5018 C   0  0  0  0  0  0  0  0  0  0  0  0
   20.9193    5.9967    1.2276 C   0  0  0  0  0  0  0  0  0  0  0  0
   19.8963    6.4095    0.4155 C   0  0  0  0  0  0  0  0  0  0  0  0
   18.5544    6.4138    0.8168 C   0  0  0  0  0  0  0  0  0  0  0  0
   18.3358    5.9701    2.0951 C   0  0  0  0  0  0  0  0  0  0  0  0
   19.3549    5.5429    2.9475 C   0  0  0  0  0  0  0  0  0  0  0  0
   17.5371    6.8666   -0.1061 C   0  0  0  0  0  0  0  0  0  0  0  0
   17.3944    6.5620   -1.5247 C   0  0  0  0  0  0  0  0  0  0  0  0
   16.6169    7.6479    0.3616 O   0  0  0  0  0  0  0  0  0  0  0  0
   16.3298    7.1244   -2.2019 O   0  0  0  0  0  0  0  0  0  0  0  0
   16.5641    7.7356   -3.4393 C   0  0  0  0  0  0  0  0  0  0  0  0
   17.5233    7.2820   -4.2927 C   0  0  0  0  0  0  0  0  0  0  0  0
   17.7323    7.9030   -5.5048 C   0  0  0  0  0  0  0  0  0  0  0  0
   17.0072    8.9933   -5.9251 C   0  0  0  0  0  0  0  0  0  0  0  0
   16.0363    9.4509   -5.0590 C   0  0  0  0  0  0  0  0  0  0  0  0
   15.8095    8.8377   -3.8303 C   0  0  0  0  0  0  0  0  0  0  0  0
   17.2565    9.6201   -7.2141 C   0  0  0  0  0  0  0  0  0  0  0  0
   16.4519    9.0890   -8.3685 C   0  0  1  0  0  0  0  0  0  0  0  0
   14.9994    9.0620   -8.1395 C   0  0  0  0  0  0  0  0  0  0  0  0
   14.2253   10.2172   -8.3650 N   0  0  0  0  0  0  0  0  0  0  0  0
   14.4307    8.0241   -7.7446 O   0  0  0  0  0  0  0  0  0  0  0  0
   14.8162   11.5451   -8.3353 C   0  0  0  0  0  0  0  0  0  0  0  0
   16.7958    9.6700   -9.5802 O   0  0  0  0  0  0  0  0  0  0  0  0
   16.9416    8.7875  -10.6136 C   0  0  0  0  0  0  0  0  0  0  0  0
   18.1231    7.8915  -10.3017 C   0  0  0  0  0  0  0  0  0  0  0  0
   22.2132    6.0388    0.7143 O   0  0  0  0  0  0  0  0  0  0  0  0
   23.3531    5.6951    1.4474 C   0  0  0  0  0  0  0  0  0  0  0  0
   12.8961   10.0713   -8.6150 O   0  0  0  0  0  0  0  0  0  0  0  0
   12.1224   10.7907   -7.7146 C   0  0  0  0  0  0  0  0  0  0  0  0
 26 27  1  0
  2 26  1  0
 28 29  1  0
 20 28  1  0
  1  2  2  0
  2  3  1  0
  3  4  2  0
  4  5  1  0
  5  6  2  0
  6  1  1  0
  4  7  1  0
  7  8  1  0
  7  9  2  0
  8 10  1  0
 10 11  1  0
 11 12  2  0
 12 13  1  0
 13 14  2  0
 14 15  1  0
 15 16  2  0
 16 11  1  0
 14 17  1  0
 18 17  1  1
 18 19  1  0
 19 20  1  0
 19 21  2  0
 20 22  1  0
 18 23  1  0
 23 24  1  0
 24 25  1  0
M  STY  2   1 SUP   2 SUP
M  SLB  2   1   1   2   2
M  SAL   1  2  26  27
M  SBL   1  1   2
M  SMT   1 OCH3
M  SBV   1   2    0.7144    0.4125
M  SAL   2  2  28  29
M  SBL   2  1   4
M  SMT   2 OCH3
M  SBV   2   4   -0.7144   -0.4125
M  END
$$$$
