
     RDKit          3D

 29 30  0  2  0  0  0  0  0  0999 V2000
   18.9997    6.4544    2.1628 C   0  0  0  0  0  0  0  0  0  0  0  0
   18.4894    5.7289    1.1135 C   0  0  0  0  0  0  0  0  0  0  0  0
   18.7113    6.1424   -0.1733 C   0  0  0  0  0  0  0  0  0  0  0  0
   19.4468    7.2910   -0.4922 C   0  0  0  0  0  0  0  0  0  0  0  0
   19.9341    7.9793    0.5882 C   0  0  0  0  0  0  0  0  0  0  0  0
   19.7261    7.5852    1.9108 C   0  0  0  0  0  0  0  0  0  0  0  0
   19.6325    7.6547   -1.8797 C   0  0  0  0  0  0  0  0  0  0  0  0
   18.6472    7.6797   -2.9539 C   0  0  0  0  0  0  0  0  0  0  0  0
   20.8224    8.0099   -2.2457 O   0  0  0  0  0  0  0  0  0  0  0  0
   18.7651    8.6646   -3.9153 O   0  0  0  0  0  0  0  0  0  0  0  0
   18.0417    8.5349   -5.1067 C   0  0  0  0  0  0  0  0  0  0  0  0
   16.6958    8.3284   -5.1093 C   0  0  0  0  0  0  0  0  0  0  0  0
   16.0088    8.2043   -6.2972 C   0  0  0  0  0  0  0  0  0  0  0  0
   16.6176    8.2783   -7.5282 C   0  0  0  0  0  0  0  0  0  0  0  0
   17.9808    8.4874   -7.5229 C   0  0  0  0  0  0  0  0  0  0  0  0
   18.6929    8.6154   -6.3340 C   0  0  0  0  0  0  0  0  0  0  0  0
   15.8567    8.1446   -8.7609 C   0  0  0  0  0  0  0  0  0  0  0  0
   15.7525    9.3848   -9.6054 C   0  0  1  0  0  0  0  0  0  0  0  0
   15.0196    9.2045  -10.8677 C   0  0  0  0  0  0  0  0  0  0  0  0
   15.5103    9.7741  -12.0591 N   0  0  0  0  0  0  0  0  0  0  0  0
   13.9586    8.5493  -10.9063 O   0  0  0  0  0  0  0  0  0  0  0  0
   14.8297    9.5820  -13.3292 C   0  0  0  0  0  0  0  0  0  0  0  0
   15.3265   10.4932   -8.8884 O   0  0  0  0  0  0  0  0  0  0  0  0
   15.3642   11.6695   -9.5833 C   0  0  0  0  0  0  0  0  0  0  0  0
   13.9410   12.0512   -9.9365 C   0  0  0  0  0  0  0  0  0  0  0  0
   17.7419    4.5691    1.3030 O   0  0  0  0  0  0  0  0  0  0  0  0
   17.1135    3.8701    0.2679 C   0  0  0  0  0  0  0  0  0  0  0  0
   16.6477   10.5182  -12.0043 O   0  0  0  0  0  0  0  0  0  0  0  0
   17.3916   10.4055  -13.1709 C   0  0  0  0  0  0  0  0  0  0  0  0
 26 27  1  0
  2 26  1  0
 28 29  1  0
 20 28  1  0
  1  2  2  0
  2  3  1  0
  3  4  2  0
  4  5  1  0
  5  6  2  0
  6  1  1  0
  4  7  1  0
  7  8  1  0
  7  9  2  0
  8 10  1  0
 10 11  1  0
 11 12  2  0
 12 13  1  0
 13 14  2  0
 14 15  1  0
 15 16  2  0
 16 11  1  0
 14 17  1  0
 18 17  1  1
 18 19  1  0
 19 20  1  0
 19 21  2  0
 20 22  1  0
 18 23  1  0
 23 24  1  0
 24 25  1  0
M  STY  2   1 SUP   2 SUP
M  SLB  2   1   1   2   2
M  SAL   1  2  26  27
M  SBL   1  1   2
M  SMT   1 OCH3
M  SBV   1   2    0.7144    0.4125
M  SAL   2  2  28  29
M  SBL   2  1   4
M  SMT   2 OCH3
M  SBV   2   4   -0.7144   -0.4125
M  END
$$$$
