
     RDKit          3D

 29 30  0  2  0  0  0  0  0  0999 V2000
   20.0803    4.8468    5.8059 C   0  0  0  0  0  0  0  0  0  0  0  0
   20.0340    3.6184    5.1922 C   0  0  0  0  0  0  0  0  0  0  0  0
   19.8079    3.5379    3.8437 C   0  0  0  0  0  0  0  0  0  0  0  0
   19.6160    4.6625    3.0312 C   0  0  0  0  0  0  0  0  0  0  0  0
   19.6713    5.8632    3.6899 C   0  0  0  0  0  0  0  0  0  0  0  0
   19.8997    5.9797    5.0618 C   0  0  0  0  0  0  0  0  0  0  0  0
   19.3828    4.4857    1.6148 C   0  0  0  0  0  0  0  0  0  0  0  0
   18.8764    5.4524    0.6481 C   0  0  0  0  0  0  0  0  0  0  0  0
   19.6505    3.3242    1.1098 O   0  0  0  0  0  0  0  0  0  0  0  0
   18.7897    5.0592   -0.6734 O   0  0  0  0  0  0  0  0  0  0  0  0
   17.9622    5.7829   -1.5400 C   0  0  0  0  0  0  0  0  0  0  0  0
   17.3354    6.9255   -1.1454 C   0  0  0  0  0  0  0  0  0  0  0  0
   16.5262    7.6179   -2.0196 C   0  0  0  0  0  0  0  0  0  0  0  0
   16.3019    7.2146   -3.3151 C   0  0  0  0  0  0  0  0  0  0  0  0
   16.9378    6.0571   -3.7125 C   0  0  0  0  0  0  0  0  0  0  0  0
   17.7590    5.3432   -2.8447 C   0  0  0  0  0  0  0  0  0  0  0  0
   15.4419    7.9749   -4.2090 C   0  0  0  0  0  0  0  0  0  0  0  0
   16.1367    8.9648   -5.1032 C   0  0  1  0  0  0  0  0  0  0  0  0
   16.3687    8.4902   -6.4758 C   0  0  0  0  0  0  0  0  0  0  0  0
   17.0710    9.2951   -7.3942 N   0  0  0  0  0  0  0  0  0  0  0  0
   15.9513    7.3752   -6.8489 O   0  0  0  0  0  0  0  0  0  0  0  0
   17.3107    8.8573   -8.7595 C   0  0  0  0  0  0  0  0  0  0  0  0
   15.5649   10.2278   -5.0590 O   0  0  0  0  0  0  0  0  0  0  0  0
   14.2056   10.2424   -5.2006 C   0  0  0  0  0  0  0  0  0  0  0  0
   13.5925    9.8043   -3.8861 C   0  0  0  0  0  0  0  0  0  0  0  0
   20.2101    2.4279    5.8933 O   0  0  0  0  0  0  0  0  0  0  0  0
   19.3997    1.3004    5.7288 C   0  0  0  0  0  0  0  0  0  0  0  0
   17.5293   10.5070   -6.9797 O   0  0  0  0  0  0  0  0  0  0  0  0
   18.8667   10.4517   -6.6118 C   0  0  0  0  0  0  0  0  0  0  0  0
 26 27  1  0
  2 26  1  0
 28 29  1  0
 20 28  1  0
  1  2  2  0
  2  3  1  0
  3  4  2  0
  4  5  1  0
  5  6  2  0
  6  1  1  0
  4  7  1  0
  7  8  1  0
  7  9  2  0
  8 10  1  0
 10 11  1  0
 11 12  2  0
 12 13  1  0
 13 14  2  0
 14 15  1  0
 15 16  2  0
 16 11  1  0
 14 17  1  0
 18 17  1  6
 18 19  1  0
 19 20  1  0
 19 21  2  0
 20 22  1  0
 18 23  1  0
 23 24  1  0
 24 25  1  0
M  STY  2   1 SUP   2 SUP
M  SLB  2   1   1   2   2
M  SAL   1  2  26  27
M  SBL   1  1   2
M  SMT   1 OCH3
M  SBV   1   2    0.7144    0.4125
M  SAL   2  2  28  29
M  SBL   2  1   4
M  SMT   2 OCH3
M  SBV   2   4   -0.7144   -0.4125
M  END
$$$$
