
     RDKit          3D

 29 30  0  2  0  0  0  0  0  0999 V2000
   16.5109   10.1972    1.7843 C   0  0  0  0  0  0  0  0  0  0  0  0
   16.7970    8.8834    2.0671 C   0  0  0  0  0  0  0  0  0  0  0  0
   16.6443    7.9282    1.0973 C   0  0  0  0  0  0  0  0  0  0  0  0
   16.2024    8.2180   -0.1998 C   0  0  0  0  0  0  0  0  0  0  0  0
   15.9305    9.5412   -0.4318 C   0  0  0  0  0  0  0  0  0  0  0  0
   16.0754   10.5385    0.5338 C   0  0  0  0  0  0  0  0  0  0  0  0
   16.0695    7.1467   -1.1623 C   0  0  0  0  0  0  0  0  0  0  0  0
   15.9427    7.2360   -2.6119 C   0  0  0  0  0  0  0  0  0  0  0  0
   16.0585    5.9358   -0.7046 O   0  0  0  0  0  0  0  0  0  0  0  0
   17.0153    6.8265   -3.3802 O   0  0  0  0  0  0  0  0  0  0  0  0
   17.2022    7.4050   -4.6412 C   0  0  0  0  0  0  0  0  0  0  0  0
   17.4982    6.6539   -5.7377 C   0  0  0  0  0  0  0  0  0  0  0  0
   17.6770    7.2500   -6.9671 C   0  0  0  0  0  0  0  0  0  0  0  0
   17.5719    8.6066   -7.1665 C   0  0  0  0  0  0  0  0  0  0  0  0
   17.2720    9.3652   -6.0543 C   0  0  0  0  0  0  0  0  0  0  0  0
   17.0876    8.7824   -4.8039 C   0  0  0  0  0  0  0  0  0  0  0  0
   17.7656    9.1982   -8.4814 C   0  0  0  0  0  0  0  0  0  0  0  0
   16.5564    9.2203   -9.3755 C   0  0  1  0  0  0  0  0  0  0  0  0
   16.6229   10.2017  -10.4689 C   0  0  0  0  0  0  0  0  0  0  0  0
   15.6777   11.2436  -10.5438 N   0  0  0  0  0  0  0  0  0  0  0  0
   17.5104   10.1302  -11.3429 O   0  0  0  0  0  0  0  0  0  0  0  0
   15.7037   12.2163  -11.6239 C   0  0  0  0  0  0  0  0  0  0  0  0
   16.1798    7.9570   -9.8073 O   0  0  0  0  0  0  0  0  0  0  0  0
   14.9118    7.8825  -10.3119 C   0  0  0  0  0  0  0  0  0  0  0  0
   15.0010    7.9845  -11.8210 C   0  0  0  0  0  0  0  0  0  0  0  0
   17.2440    8.4710    3.3200 O   0  0  0  0  0  0  0  0  0  0  0  0
   18.0180    9.2660    4.1709 C   0  0  0  0  0  0  0  0  0  0  0  0
   14.7250   11.3287   -9.5765 O   0  0  0  0  0  0  0  0  0  0  0  0
   14.8057   12.5270   -8.8805 C   0  0  0  0  0  0  0  0  0  0  0  0
 26 27  1  0
  2 26  1  0
 28 29  1  0
 20 28  1  0
  1  2  2  0
  2  3  1  0
  3  4  2  0
  4  5  1  0
  5  6  2  0
  6  1  1  0
  4  7  1  0
  7  8  1  0
  7  9  2  0
  8 10  1  0
 10 11  1  0
 11 12  2  0
 12 13  1  0
 13 14  2  0
 14 15  1  0
 15 16  2  0
 16 11  1  0
 14 17  1  0
 18 17  1  6
 18 19  1  0
 19 20  1  0
 19 21  2  0
 20 22  1  0
 18 23  1  0
 23 24  1  0
 24 25  1  0
M  STY  2   1 SUP   2 SUP
M  SLB  2   1   1   2   2
M  SAL   1  2  26  27
M  SBL   1  1   2
M  SMT   1 OCH3
M  SBV   1   2    0.7144    0.4125
M  SAL   2  2  28  29
M  SBL   2  1   4
M  SMT   2 OCH3
M  SBV   2   4   -0.7144   -0.4125
M  END
$$$$
