
     RDKit          3D

 29 30  0  2  0  0  0  0  0  0999 V2000
   19.4123    5.1693   -2.2885 C   0  0  0  0  0  0  0  0  0  0  0  0
   18.7347    5.9414   -3.2009 C   0  0  0  0  0  0  0  0  0  0  0  0
   17.9030    6.9390   -2.7659 C   0  0  0  0  0  0  0  0  0  0  0  0
   17.6963    7.2267   -1.4108 C   0  0  0  0  0  0  0  0  0  0  0  0
   18.3940    6.4294   -0.5413 C   0  0  0  0  0  0  0  0  0  0  0  0
   19.2488    5.4053   -0.9516 C   0  0  0  0  0  0  0  0  0  0  0  0
   16.7994    8.2991   -1.0397 C   0  0  0  0  0  0  0  0  0  0  0  0
   16.2589    8.6195    0.2758 C   0  0  0  0  0  0  0  0  0  0  0  0
   16.4074    9.0971   -1.9807 O   0  0  0  0  0  0  0  0  0  0  0  0
   16.0274    9.9487    0.5724 O   0  0  0  0  0  0  0  0  0  0  0  0
   14.8497   10.5482    0.1104 C   0  0  0  0  0  0  0  0  0  0  0  0
   14.7647   11.8902   -0.1037 C   0  0  0  0  0  0  0  0  0  0  0  0
   13.5925   12.4536   -0.5588 C   0  0  0  0  0  0  0  0  0  0  0  0
   12.4590   11.7204   -0.8211 C   0  0  0  0  0  0  0  0  0  0  0  0
   12.5476   10.3614   -0.6033 C   0  0  0  0  0  0  0  0  0  0  0  0
   13.7223    9.7730   -0.1439 C   0  0  0  0  0  0  0  0  0  0  0  0
   11.2405   12.3523   -1.3031 C   0  0  0  0  0  0  0  0  0  0  0  0
   10.2536   12.7660   -0.2462 C   0  0  1  0  0  0  0  0  0  0  0  0
    9.0750   13.4818   -0.7576 C   0  0  0  0  0  0  0  0  0  0  0  0
    9.1995   14.8019   -1.2334 N   0  0  0  0  0  0  0  0  0  0  0  0
    7.9525   12.9376   -0.7793 O   0  0  0  0  0  0  0  0  0  0  0  0
    8.0842   15.4912   -1.8614 C   0  0  0  0  0  0  0  0  0  0  0  0
    9.9236   11.7335    0.6193 O   0  0  0  0  0  0  0  0  0  0  0  0
    9.0638   12.0844    1.6222 C   0  0  0  0  0  0  0  0  0  0  0  0
    9.7151   13.1855    2.4342 C   0  0  0  0  0  0  0  0  0  0  0  0
   18.8579    5.7519   -4.5751 O   0  0  0  0  0  0  0  0  0  0  0  0
   18.1620    6.4999   -5.5296 C   0  0  0  0  0  0  0  0  0  0  0  0
   10.3965   15.4332   -1.0952 O   0  0  0  0  0  0  0  0  0  0  0  0
   10.9001   15.8526   -2.3189 C   0  0  0  0  0  0  0  0  0  0  0  0
 26 27  1  0
  2 26  1  0
 28 29  1  0
 20 28  1  0
  1  2  2  0
  2  3  1  0
  3  4  2  0
  4  5  1  0
  5  6  2  0
  6  1  1  0
  4  7  1  0
  7  8  1  0
  7  9  2  0
  8 10  1  0
 10 11  1  0
 11 12  2  0
 12 13  1  0
 13 14  2  0
 14 15  1  0
 15 16  2  0
 16 11  1  0
 14 17  1  0
 18 17  1  6
 18 19  1  0
 19 20  1  0
 19 21  2  0
 20 22  1  0
 18 23  1  0
 23 24  1  0
 24 25  1  0
M  STY  2   1 SUP   2 SUP
M  SLB  2   1   1   2   2
M  SAL   1  2  26  27
M  SBL   1  1   2
M  SMT   1 OCH3
M  SBV   1   2    0.7144    0.4125
M  SAL   2  2  28  29
M  SBL   2  1   4
M  SMT   2 OCH3
M  SBV   2   4   -0.7144   -0.4125
M  END
$$$$
