
     RDKit          3D

 29 30  0  2  0  0  0  0  0  0999 V2000
   22.0176    2.3060    8.6833 C   0  0  0  0  0  0  0  0  0  0  0  0
   21.0771    3.2498    9.0189 C   0  0  0  0  0  0  0  0  0  0  0  0
   20.2232    3.7318    8.0625 C   0  0  0  0  0  0  0  0  0  0  0  0
   20.2519    3.3091    6.7275 C   0  0  0  0  0  0  0  0  0  0  0  0
   21.2068    2.3677    6.4435 C   0  0  0  0  0  0  0  0  0  0  0  0
   22.0916    1.8563    7.3941 C   0  0  0  0  0  0  0  0  0  0  0  0
   19.3124    3.8714    5.7826 C   0  0  0  0  0  0  0  0  0  0  0  0
   19.5747    4.4346    4.4637 C   0  0  0  0  0  0  0  0  0  0  0  0
   18.0645    3.8906    6.1266 O   0  0  0  0  0  0  0  0  0  0  0  0
   18.6676    5.3460    3.9589 O   0  0  0  0  0  0  0  0  0  0  0  0
   18.9122    5.9177    2.7047 C   0  0  0  0  0  0  0  0  0  0  0  0
   18.0991    6.8775    2.1835 C   0  0  0  0  0  0  0  0  0  0  0  0
   18.3638    7.4231    0.9462 C   0  0  0  0  0  0  0  0  0  0  0  0
   19.4374    7.0469    0.1736 C   0  0  0  0  0  0  0  0  0  0  0  0
   20.2596    6.0746    0.7036 C   0  0  0  0  0  0  0  0  0  0  0  0
   20.0095    5.5110    1.9514 C   0  0  0  0  0  0  0  0  0  0  0  0
   19.6846    7.6487   -1.1277 C   0  0  0  0  0  0  0  0  0  0  0  0
   18.9678    7.0172   -2.2894 C   0  0  1  0  0  0  0  0  0  0  0  0
   17.5042    7.1585   -2.2540 C   0  0  0  0  0  0  0  0  0  0  0  0
   16.6866    6.2294   -2.9269 N   0  0  0  0  0  0  0  0  0  0  0  0
   16.9644    8.0960   -1.6325 O   0  0  0  0  0  0  0  0  0  0  0  0
   15.2474    6.4116   -3.0197 C   0  0  0  0  0  0  0  0  0  0  0  0
   19.5134    7.3662   -3.5160 O   0  0  0  0  0  0  0  0  0  0  0  0
   19.7160    8.7069   -3.6881 C   0  0  0  0  0  0  0  0  0  0  0  0
   18.5766    9.2492   -4.5270 C   0  0  0  0  0  0  0  0  0  0  0  0
   20.9504    3.7483   10.3132 O   0  0  0  0  0  0  0  0  0  0  0  0
   21.6727    3.2641   11.4081 C   0  0  0  0  0  0  0  0  0  0  0  0
   17.2713    5.1419   -3.4980 O   0  0  0  0  0  0  0  0  0  0  0  0
   17.8123    4.2900   -2.5448 C   0  0  0  0  0  0  0  0  0  0  0  0
 26 27  1  0
  2 26  1  0
 28 29  1  0
 20 28  1  0
  1  2  2  0
  2  3  1  0
  3  4  2  0
  4  5  1  0
  5  6  2  0
  6  1  1  0
  4  7  1  0
  7  8  1  0
  7  9  2  0
  8 10  1  0
 10 11  1  0
 11 12  2  0
 12 13  1  0
 13 14  2  0
 14 15  1  0
 15 16  2  0
 16 11  1  0
 14 17  1  0
 18 17  1  1
 18 19  1  0
 19 20  1  0
 19 21  2  0
 20 22  1  0
 18 23  1  0
 23 24  1  0
 24 25  1  0
M  STY  2   1 SUP   2 SUP
M  SLB  2   1   1   2   2
M  SAL   1  2  26  27
M  SBL   1  1   2
M  SMT   1 OCH3
M  SBV   1   2    0.7144    0.4125
M  SAL   2  2  28  29
M  SBL   2  1   4
M  SMT   2 OCH3
M  SBV   2   4   -0.7144   -0.4125
M  END
$$$$
