
     RDKit          3D

 29 30  0  2  0  0  0  0  0  0999 V2000
   22.7548    5.5120    3.2498 C   0  0  0  0  0  0  0  0  0  0  0  0
   21.5805    4.8704    3.5613 C   0  0  0  0  0  0  0  0  0  0  0  0
   20.5138    4.9467    2.7053 C   0  0  0  0  0  0  0  0  0  0  0  0
   20.5494    5.6584    1.4995 C   0  0  0  0  0  0  0  0  0  0  0  0
   21.7418    6.2802    1.2345 C   0  0  0  0  0  0  0  0  0  0  0  0
   22.8469    6.2223    2.0849 C   0  0  0  0  0  0  0  0  0  0  0  0
   19.3758    5.6863    0.6547 C   0  0  0  0  0  0  0  0  0  0  0  0
   19.1932    6.3548   -0.6279 C   0  0  0  0  0  0  0  0  0  0  0  0
   18.3325    5.0401    1.0669 O   0  0  0  0  0  0  0  0  0  0  0  0
   17.9132    6.4261   -1.1424 O   0  0  0  0  0  0  0  0  0  0  0  0
   17.6889    7.1957   -2.2900 C   0  0  0  0  0  0  0  0  0  0  0  0
   16.4416    7.6158   -2.6390 C   0  0  0  0  0  0  0  0  0  0  0  0
   16.2498    8.3725   -3.7745 C   0  0  0  0  0  0  0  0  0  0  0  0
   17.2760    8.7456   -4.6106 C   0  0  0  0  0  0  0  0  0  0  0  0
   18.5384    8.3188   -4.2550 C   0  0  0  0  0  0  0  0  0  0  0  0
   18.7531    7.5539   -3.1123 C   0  0  0  0  0  0  0  0  0  0  0  0
   17.0331    9.5475   -5.7999 C   0  0  0  0  0  0  0  0  0  0  0  0
   16.6906    8.7823   -7.0485 C   0  0  1  0  0  0  0  0  0  0  0  0
   15.6718    7.7375   -6.8646 C   0  0  0  0  0  0  0  0  0  0  0  0
   14.3061    8.0802   -6.8202 N   0  0  0  0  0  0  0  0  0  0  0  0
   15.9957    6.5386   -6.7455 O   0  0  0  0  0  0  0  0  0  0  0  0
   13.2742    7.0687   -6.6610 C   0  0  0  0  0  0  0  0  0  0  0  0
   16.4279    9.6063   -8.1330 O   0  0  0  0  0  0  0  0  0  0  0  0
   17.4845    9.7843   -8.9816 C   0  0  0  0  0  0  0  0  0  0  0  0
   18.0529    8.4200   -9.3153 C   0  0  0  0  0  0  0  0  0  0  0  0
   21.4226    4.1314    4.7312 O   0  0  0  0  0  0  0  0  0  0  0  0
   20.2961    3.3529    5.0142 C   0  0  0  0  0  0  0  0  0  0  0  0
   13.9603    9.3912   -6.9299 O   0  0  0  0  0  0  0  0  0  0  0  0
   14.5649   10.1655   -5.9491 C   0  0  0  0  0  0  0  0  0  0  0  0
 26 27  1  0
  2 26  1  0
 28 29  1  0
 20 28  1  0
  1  2  2  0
  2  3  1  0
  3  4  2  0
  4  5  1  0
  5  6  2  0
  6  1  1  0
  4  7  1  0
  7  8  1  0
  7  9  2  0
  8 10  1  0
 10 11  1  0
 11 12  2  0
 12 13  1  0
 13 14  2  0
 14 15  1  0
 15 16  2  0
 16 11  1  0
 14 17  1  0
 18 17  1  1
 18 19  1  0
 19 20  1  0
 19 21  2  0
 20 22  1  0
 18 23  1  0
 23 24  1  0
 24 25  1  0
M  STY  2   1 SUP   2 SUP
M  SLB  2   1   1   2   2
M  SAL   1  2  26  27
M  SBL   1  1   2
M  SMT   1 OCH3
M  SBV   1   2    0.7144    0.4125
M  SAL   2  2  28  29
M  SBL   2  1   4
M  SMT   2 OCH3
M  SBV   2   4   -0.7144   -0.4125
M  END
$$$$
