
     RDKit          3D

 29 30  0  2  0  0  0  0  0  0999 V2000
   20.5404    4.7630    4.7094 C   0  0  0  0  0  0  0  0  0  0  0  0
   19.1894    4.5302    4.8023 C   0  0  0  0  0  0  0  0  0  0  0  0
   18.3740    4.8124    3.7385 C   0  0  0  0  0  0  0  0  0  0  0  0
   18.8473    5.3380    2.5296 C   0  0  0  0  0  0  0  0  0  0  0  0
   20.2004    5.5521    2.4869 C   0  0  0  0  0  0  0  0  0  0  0  0
   21.0584    5.2755    3.5523 C   0  0  0  0  0  0  0  0  0  0  0  0
   17.9150    5.6065    1.4569 C   0  0  0  0  0  0  0  0  0  0  0  0
   18.1893    6.1156    0.1187 C   0  0  0  0  0  0  0  0  0  0  0  0
   16.6626    5.3731    1.6869 O   0  0  0  0  0  0  0  0  0  0  0  0
   17.1287    6.2284   -0.7592 O   0  0  0  0  0  0  0  0  0  0  0  0
   17.3833    6.6212   -2.0785 C   0  0  0  0  0  0  0  0  0  0  0  0
   18.1557    7.7047   -2.3675 C   0  0  0  0  0  0  0  0  0  0  0  0
   18.3898    8.0686   -3.6757 C   0  0  0  0  0  0  0  0  0  0  0  0
   17.8742    7.3822   -4.7500 C   0  0  0  0  0  0  0  0  0  0  0  0
   17.0922    6.2852   -4.4547 C   0  0  0  0  0  0  0  0  0  0  0  0
   16.8437    5.9012   -3.1402 C   0  0  0  0  0  0  0  0  0  0  0  0
   18.1465    7.7969   -6.1177 C   0  0  0  0  0  0  0  0  0  0  0  0
   17.0105    8.4703   -6.8375 C   0  0  1  0  0  0  0  0  0  0  0  0
   16.6006    9.7597   -6.2607 C   0  0  0  0  0  0  0  0  0  0  0  0
   15.2858    9.9378   -5.7874 N   0  0  0  0  0  0  0  0  0  0  0  0
   17.4032   10.7116   -6.1807 O   0  0  0  0  0  0  0  0  0  0  0  0
   14.8761   11.1666   -5.1275 C   0  0  0  0  0  0  0  0  0  0  0  0
   17.1995    8.5297   -8.2104 O   0  0  0  0  0  0  0  0  0  0  0  0
   16.0613    8.7564   -8.9323 C   0  0  0  0  0  0  0  0  0  0  0  0
   16.0962   10.1888   -9.4252 C   0  0  0  0  0  0  0  0  0  0  0  0
   18.6002    4.0099    5.9520 O   0  0  0  0  0  0  0  0  0  0  0  0
   19.1675    2.9925    6.7254 C   0  0  0  0  0  0  0  0  0  0  0  0
   14.3901    8.9283   -5.9588 O   0  0  0  0  0  0  0  0  0  0  0  0
   13.7119    8.6386   -4.7827 C   0  0  0  0  0  0  0  0  0  0  0  0
 26 27  1  0
  2 26  1  0
 28 29  1  0
 20 28  1  0
  1  2  2  0
  2  3  1  0
  3  4  2  0
  4  5  1  0
  5  6  2  0
  6  1  1  0
  4  7  1  0
  7  8  1  0
  7  9  2  0
  8 10  1  0
 10 11  1  0
 11 12  2  0
 12 13  1  0
 13 14  2  0
 14 15  1  0
 15 16  2  0
 16 11  1  0
 14 17  1  0
 18 17  1  1
 18 19  1  0
 19 20  1  0
 19 21  2  0
 20 22  1  0
 18 23  1  0
 23 24  1  0
 24 25  1  0
M  STY  2   1 SUP   2 SUP
M  SLB  2   1   1   2   2
M  SAL   1  2  26  27
M  SBL   1  1   2
M  SMT   1 OCH3
M  SBV   1   2    0.7144    0.4125
M  SAL   2  2  28  29
M  SBL   2  1   4
M  SMT   2 OCH3
M  SBV   2   4   -0.7144   -0.4125
M  END
$$$$
