
     RDKit          3D

 29 30  0  2  0  0  0  0  0  0999 V2000
   14.3387    8.9888   -5.8939 C   0  0  0  0  0  0  0  0  0  0  0  0
   15.4852    9.6946   -6.1682 C   0  0  0  0  0  0  0  0  0  0  0  0
   16.6696    9.3233   -5.5888 C   0  0  0  0  0  0  0  0  0  0  0  0
   16.7851    8.2386   -4.7103 C   0  0  0  0  0  0  0  0  0  0  0  0
   15.6146    7.5675   -4.4691 C   0  0  0  0  0  0  0  0  0  0  0  0
   14.3920    7.9198   -5.0429 C   0  0  0  0  0  0  0  0  0  0  0  0
   18.0761    7.9164   -4.1433 C   0  0  0  0  0  0  0  0  0  0  0  0
   18.5807    6.6201   -3.7069 C   0  0  0  0  0  0  0  0  0  0  0  0
   18.9167    8.8891   -3.9911 O   0  0  0  0  0  0  0  0  0  0  0  0
   19.6756    6.6037   -2.8649 O   0  0  0  0  0  0  0  0  0  0  0  0
   19.4668    6.4523   -1.4890 C   0  0  0  0  0  0  0  0  0  0  0  0
   18.7541    5.4084   -0.9826 C   0  0  0  0  0  0  0  0  0  0  0  0
   18.5641    5.2842    0.3764 C   0  0  0  0  0  0  0  0  0  0  0  0
   19.0670    6.1805    1.2902 C   0  0  0  0  0  0  0  0  0  0  0  0
   19.7885    7.2369    0.7748 C   0  0  0  0  0  0  0  0  0  0  0  0
   19.9916    7.3804   -0.5945 C   0  0  0  0  0  0  0  0  0  0  0  0
   18.8466    6.0132    2.7184 C   0  0  0  0  0  0  0  0  0  0  0  0
   20.0253    5.5182    3.5106 C   0  0  1  0  0  0  0  0  0  0  0  0
   19.6941    5.0289    4.8575 C   0  0  0  0  0  0  0  0  0  0  0  0
   19.3270    5.9367    5.8703 N   0  0  0  0  0  0  0  0  0  0  0  0
   19.7319    3.8110    5.1256 O   0  0  0  0  0  0  0  0  0  0  0  0
   18.7932    5.4796    7.1429 C   0  0  0  0  0  0  0  0  0  0  0  0
   20.8239    4.6359    2.7979 O   0  0  0  0  0  0  0  0  0  0  0  0
   22.0475    4.3963    3.3578 C   0  0  0  0  0  0  0  0  0  0  0  0
   22.1294    2.9207    3.6918 C   0  0  0  0  0  0  0  0  0  0  0  0
   15.4977   10.7920   -7.0255 O   0  0  0  0  0  0  0  0  0  0  0  0
   16.5572   11.7003   -7.1122 C   0  0  0  0  0  0  0  0  0  0  0  0
   19.4813    7.2682    5.6379 O   0  0  0  0  0  0  0  0  0  0  0  0
   20.6993    7.7345    6.1132 C   0  0  0  0  0  0  0  0  0  0  0  0
 26 27  1  0
  2 26  1  0
 28 29  1  0
 20 28  1  0
  1  2  2  0
  2  3  1  0
  3  4  2  0
  4  5  1  0
  5  6  2  0
  6  1  1  0
  4  7  1  0
  7  8  1  0
  7  9  2  0
  8 10  1  0
 10 11  1  0
 11 12  2  0
 12 13  1  0
 13 14  2  0
 14 15  1  0
 15 16  2  0
 16 11  1  0
 14 17  1  0
 18 17  1  6
 18 19  1  0
 19 20  1  0
 19 21  2  0
 20 22  1  0
 18 23  1  0
 23 24  1  0
 24 25  1  0
M  STY  2   1 SUP   2 SUP
M  SLB  2   1   1   2   2
M  SAL   1  2  26  27
M  SBL   1  1   2
M  SMT   1 OCH3
M  SBV   1   2    0.7144    0.4125
M  SAL   2  2  28  29
M  SBL   2  1   4
M  SMT   2 OCH3
M  SBV   2   4   -0.7144   -0.4125
M  END
$$$$
