
     RDKit          3D

 29 30  0  2  0  0  0  0  0  0999 V2000
   16.6263    8.9084  -10.0506 C   0  0  0  0  0  0  0  0  0  0  0  0
   15.9504    7.8445   -9.5037 C   0  0  0  0  0  0  0  0  0  0  0  0
   16.1323    7.5268   -8.1837 C   0  0  0  0  0  0  0  0  0  0  0  0
   16.9886    8.2404   -7.3356 C   0  0  0  0  0  0  0  0  0  0  0  0
   17.6391    9.2915   -7.9280 C   0  0  0  0  0  0  0  0  0  0  0  0
   17.4761    9.6413   -9.2692 C   0  0  0  0  0  0  0  0  0  0  0  0
   17.1210    7.8356   -5.9534 C   0  0  0  0  0  0  0  0  0  0  0  0
   17.7654    8.5451   -4.8549 C   0  0  0  0  0  0  0  0  0  0  0  0
   16.6085    6.6953   -5.6174 O   0  0  0  0  0  0  0  0  0  0  0  0
   17.8477    7.9055   -3.6332 O   0  0  0  0  0  0  0  0  0  0  0  0
   16.8753    8.1756   -2.6631 C   0  0  0  0  0  0  0  0  0  0  0  0
   15.8240    9.0041   -2.9130 C   0  0  0  0  0  0  0  0  0  0  0  0
   14.8813    9.2523   -1.9393 C   0  0  0  0  0  0  0  0  0  0  0  0
   14.9349    8.6959   -0.6827 C   0  0  0  0  0  0  0  0  0  0  0  0
   16.0007    7.8571   -0.4320 C   0  0  0  0  0  0  0  0  0  0  0  0
   16.9634    7.5937   -1.4020 C   0  0  0  0  0  0  0  0  0  0  0  0
   13.9182    8.9809    0.3180 C   0  0  0  0  0  0  0  0  0  0  0  0
   14.0664   10.2861    1.0506 C   0  0  1  0  0  0  0  0  0  0  0  0
   13.7895   11.4788    0.2359 C   0  0  0  0  0  0  0  0  0  0  0  0
   13.9833   11.4442   -1.1590 N   0  0  0  0  0  0  0  0  0  0  0  0
   13.3813   12.5345    0.7608 O   0  0  0  0  0  0  0  0  0  0  0  0
   13.7335   12.6108   -1.9897 C   0  0  0  0  0  0  0  0  0  0  0  0
   13.4044   10.3004    2.2695 O   0  0  0  0  0  0  0  0  0  0  0  0
   14.1211   10.8409    3.3001 C   0  0  0  0  0  0  0  0  0  0  0  0
   13.5722   12.2258    3.5771 C   0  0  0  0  0  0  0  0  0  0  0  0
   15.0715    7.0591  -10.2454 O   0  0  0  0  0  0  0  0  0  0  0  0
   14.2189    6.1033   -9.6846 C   0  0  0  0  0  0  0  0  0  0  0  0
   14.4142   10.2859   -1.7276 O   0  0  0  0  0  0  0  0  0  0  0  0
   13.9349    9.1726   -1.0510 C   0  0  0  0  0  0  0  0  0  0  0  0
 26 27  1  0
  2 26  1  0
 28 29  1  0
 20 28  1  0
  1  2  2  0
  2  3  1  0
  3  4  2  0
  4  5  1  0
  5  6  2  0
  6  1  1  0
  4  7  1  0
  7  8  1  0
  7  9  2  0
  8 10  1  0
 10 11  1  0
 11 12  2  0
 12 13  1  0
 13 14  2  0
 14 15  1  0
 15 16  2  0
 16 11  1  0
 14 17  1  0
 18 17  1  6
 18 19  1  0
 19 20  1  0
 19 21  2  0
 20 22  1  0
 18 23  1  0
 23 24  1  0
 24 25  1  0
M  STY  2   1 SUP   2 SUP
M  SLB  2   1   1   2   2
M  SAL   1  2  26  27
M  SBL   1  1   2
M  SMT   1 OCH3
M  SBV   1   2    0.7144    0.4125
M  SAL   2  2  28  29
M  SBL   2  1   4
M  SMT   2 OCH3
M  SBV   2   4   -0.7144   -0.4125
M  END
$$$$
