
     RDKit          3D

 29 30  0  2  0  0  0  0  0  0999 V2000
   20.6970    5.8075    3.6644 C   0  0  0  0  0  0  0  0  0  0  0  0
   19.7636    4.8521    3.3423 C   0  0  0  0  0  0  0  0  0  0  0  0
   18.9741    5.0159    2.2350 C   0  0  0  0  0  0  0  0  0  0  0  0
   19.0637    6.1286    1.3889 C   0  0  0  0  0  0  0  0  0  0  0  0
   20.0088    7.0522    1.7526 C   0  0  0  0  0  0  0  0  0  0  0  0
   20.8286    6.9154    2.8738 C   0  0  0  0  0  0  0  0  0  0  0  0
   18.1900    6.2210    0.2400 C   0  0  0  0  0  0  0  0  0  0  0  0
   18.4448    6.8535   -1.0487 C   0  0  0  0  0  0  0  0  0  0  0  0
   17.0187    5.6788    0.3400 O   0  0  0  0  0  0  0  0  0  0  0  0
   17.5413    6.6270   -2.0688 O   0  0  0  0  0  0  0  0  0  0  0  0
   17.7457    7.2548   -3.3032 C   0  0  0  0  0  0  0  0  0  0  0  0
   17.8327    8.6092   -3.4130 C   0  0  0  0  0  0  0  0  0  0  0  0
   18.0343    9.2005   -4.6411 C   0  0  0  0  0  0  0  0  0  0  0  0
   18.1584    8.4841   -5.8084 C   0  0  0  0  0  0  0  0  0  0  0  0
   18.0700    7.1124   -5.6946 C   0  0  0  0  0  0  0  0  0  0  0  0
   17.8665    6.4958   -4.4635 C   0  0  0  0  0  0  0  0  0  0  0  0
   18.3731    9.1455   -7.0863 C   0  0  0  0  0  0  0  0  0  0  0  0
   17.1375    9.4198   -7.8988 C   0  0  1  0  0  0  0  0  0  0  0  0
   16.1597   10.3025   -7.2445 C   0  0  0  0  0  0  0  0  0  0  0  0
   14.7814   10.0284   -7.3427 N   0  0  0  0  0  0  0  0  0  0  0  0
   16.5299   11.3019   -6.5960 O   0  0  0  0  0  0  0  0  0  0  0  0
   13.7822   11.0319   -7.0143 C   0  0  0  0  0  0  0  0  0  0  0  0
   17.4207    9.8014   -9.2019 O   0  0  0  0  0  0  0  0  0  0  0  0
   17.0307    8.9033  -10.1555 C   0  0  0  0  0  0  0  0  0  0  0  0
   15.7779    9.4383  -10.8190 C   0  0  0  0  0  0  0  0  0  0  0  0
   19.5803    3.7019    4.1059 O   0  0  0  0  0  0  0  0  0  0  0  0
   20.3918    3.3486    5.1884 C   0  0  0  0  0  0  0  0  0  0  0  0
   14.3916    8.7922   -7.7556 O   0  0  0  0  0  0  0  0  0  0  0  0
   14.9781    7.7888   -6.9965 C   0  0  0  0  0  0  0  0  0  0  0  0
 26 27  1  0
  2 26  1  0
 28 29  1  0
 20 28  1  0
  1  2  2  0
  2  3  1  0
  3  4  2  0
  4  5  1  0
  5  6  2  0
  6  1  1  0
  4  7  1  0
  7  8  1  0
  7  9  2  0
  8 10  1  0
 10 11  1  0
 11 12  2  0
 12 13  1  0
 13 14  2  0
 14 15  1  0
 15 16  2  0
 16 11  1  0
 14 17  1  0
 18 17  1  1
 18 19  1  0
 19 20  1  0
 19 21  2  0
 20 22  1  0
 18 23  1  0
 23 24  1  0
 24 25  1  0
M  STY  2   1 SUP   2 SUP
M  SLB  2   1   1   2   2
M  SAL   1  2  26  27
M  SBL   1  1   2
M  SMT   1 OCH3
M  SBV   1   2    0.7144    0.4125
M  SAL   2  2  28  29
M  SBL   2  1   4
M  SMT   2 OCH3
M  SBV   2   4   -0.7144   -0.4125
M  END
$$$$
