
     RDKit          3D

 29 30  0  2  0  0  0  0  0  0999 V2000
   21.4940    3.6877    5.0515 C   0  0  0  0  0  0  0  0  0  0  0  0
   20.5977    4.7209    4.9211 C   0  0  0  0  0  0  0  0  0  0  0  0
   19.7566    4.7618    3.8407 C   0  0  0  0  0  0  0  0  0  0  0  0
   19.7555    3.7878    2.8343 C   0  0  0  0  0  0  0  0  0  0  0  0
   20.6667    2.7791    3.0099 C   0  0  0  0  0  0  0  0  0  0  0  0
   21.5372    2.7080    4.0985 C   0  0  0  0  0  0  0  0  0  0  0  0
   18.8324    3.9093    1.7274 C   0  0  0  0  0  0  0  0  0  0  0  0
   18.9060    3.2918    0.4088 C   0  0  0  0  0  0  0  0  0  0  0  0
   17.7925    4.6604    1.9018 O   0  0  0  0  0  0  0  0  0  0  0  0
   17.8674    3.5242   -0.4718 O   0  0  0  0  0  0  0  0  0  0  0  0
   17.8188    4.7476   -1.1504 C   0  0  0  0  0  0  0  0  0  0  0  0
   18.9509    5.4091   -1.5177 C   0  0  0  0  0  0  0  0  0  0  0  0
   18.8736    6.6121   -2.1850 C   0  0  0  0  0  0  0  0  0  0  0  0
   17.6812    7.2114   -2.5173 C   0  0  0  0  0  0  0  0  0  0  0  0
   16.5360    6.5395   -2.1441 C   0  0  0  0  0  0  0  0  0  0  0  0
   16.5927    5.3235   -1.4695 C   0  0  0  0  0  0  0  0  0  0  0  0
   17.6411    8.4820   -3.2248 C   0  0  0  0  0  0  0  0  0  0  0  0
   17.4575    8.3974   -4.7152 C   0  0  1  0  0  0  0  0  0  0  0  0
   16.0958    8.7004   -5.1811 C   0  0  0  0  0  0  0  0  0  0  0  0
   15.6692    8.2667   -6.4516 N   0  0  0  0  0  0  0  0  0  0  0  0
   15.3000    9.3417   -4.4655 O   0  0  0  0  0  0  0  0  0  0  0  0
   14.4443    8.7677   -7.0534 C   0  0  0  0  0  0  0  0  0  0  0  0
   18.4340    9.0855   -5.4203 O   0  0  0  0  0  0  0  0  0  0  0  0
   18.5424   10.4093   -5.0980 C   0  0  0  0  0  0  0  0  0  0  0  0
   17.4417   11.1593   -5.8204 C   0  0  0  0  0  0  0  0  0  0  0  0
   20.5039    5.7486    5.8563 O   0  0  0  0  0  0  0  0  0  0  0  0
   19.9570    7.0054    5.5797 C   0  0  0  0  0  0  0  0  0  0  0  0
   16.4309    7.3582   -7.1188 O   0  0  0  0  0  0  0  0  0  0  0  0
   17.3145    7.9737   -7.9948 C   0  0  0  0  0  0  0  0  0  0  0  0
 26 27  1  0
  2 26  1  0
 28 29  1  0
 20 28  1  0
  1  2  2  0
  2  3  1  0
  3  4  2  0
  4  5  1  0
  5  6  2  0
  6  1  1  0
  4  7  1  0
  7  8  1  0
  7  9  2  0
  8 10  1  0
 10 11  1  0
 11 12  2  0
 12 13  1  0
 13 14  2  0
 14 15  1  0
 15 16  2  0
 16 11  1  0
 14 17  1  0
 18 17  1  1
 18 19  1  0
 19 20  1  0
 19 21  2  0
 20 22  1  0
 18 23  1  0
 23 24  1  0
 24 25  1  0
M  STY  2   1 SUP   2 SUP
M  SLB  2   1   1   2   2
M  SAL   1  2  26  27
M  SBL   1  1   2
M  SMT   1 OCH3
M  SBV   1   2    0.7144    0.4125
M  SAL   2  2  28  29
M  SBL   2  1   4
M  SMT   2 OCH3
M  SBV   2   4   -0.7144   -0.4125
M  END
$$$$
