
     RDKit          3D

 29 30  0  2  0  0  0  0  0  0999 V2000
   17.1893    7.9207   -9.9791 C   0  0  0  0  0  0  0  0  0  0  0  0
   16.6720    6.7354   -9.5151 C   0  0  0  0  0  0  0  0  0  0  0  0
   16.3664    6.5983   -8.1869 C   0  0  0  0  0  0  0  0  0  0  0  0
   16.5545    7.6209   -7.2485 C   0  0  0  0  0  0  0  0  0  0  0  0
   17.0724    8.7821   -7.7605 C   0  0  0  0  0  0  0  0  0  0  0  0
   17.3943    8.9543   -9.1075 C   0  0  0  0  0  0  0  0  0  0  0  0
   16.2044    7.3899   -5.8644 C   0  0  0  0  0  0  0  0  0  0  0  0
   15.9178    8.3685   -4.8225 C   0  0  0  0  0  0  0  0  0  0  0  0
   16.1276    6.1596   -5.4691 O   0  0  0  0  0  0  0  0  0  0  0  0
   16.1128    7.9887   -3.5087 O   0  0  0  0  0  0  0  0  0  0  0  0
   15.6579    8.8316   -2.4878 C   0  0  0  0  0  0  0  0  0  0  0  0
   15.1204    8.3390   -1.3377 C   0  0  0  0  0  0  0  0  0  0  0  0
   14.6805    9.1921   -0.3491 C   0  0  0  0  0  0  0  0  0  0  0  0
   14.7518   10.5616   -0.4522 C   0  0  0  0  0  0  0  0  0  0  0  0
   15.2965   11.0580   -1.6180 C   0  0  0  0  0  0  0  0  0  0  0  0
   15.7465   10.2133   -2.6285 C   0  0  0  0  0  0  0  0  0  0  0  0
   14.2784   11.4292    0.6154 C   0  0  0  0  0  0  0  0  0  0  0  0
   12.7859   11.5070    0.7844 C   0  0  1  0  0  0  0  0  0  0  0  0
   12.0734   12.1128   -0.3508 C   0  0  0  0  0  0  0  0  0  0  0  0
   12.2736   13.4703   -0.6696 N   0  0  0  0  0  0  0  0  0  0  0  0
   11.2851   11.4411   -1.0465 O   0  0  0  0  0  0  0  0  0  0  0  0
   11.8450   14.0222   -1.9443 C   0  0  0  0  0  0  0  0  0  0  0  0
   12.2247   10.3066    1.1944 O   0  0  0  0  0  0  0  0  0  0  0  0
   11.1472   10.4365    2.0252 C   0  0  0  0  0  0  0  0  0  0  0  0
   10.0534    9.5168    1.5216 C   0  0  0  0  0  0  0  0  0  0  0  0
   16.4398    5.6457  -10.3507 O   0  0  0  0  0  0  0  0  0  0  0  0
   15.5280    4.6253  -10.0641 C   0  0  0  0  0  0  0  0  0  0  0  0
   12.8831   14.2707    0.2461 O   0  0  0  0  0  0  0  0  0  0  0  0
   14.0865   13.7311    0.6794 C   0  0  0  0  0  0  0  0  0  0  0  0
 26 27  1  0
  2 26  1  0
 28 29  1  0
 20 28  1  0
  1  2  2  0
  2  3  1  0
  3  4  2  0
  4  5  1  0
  5  6  2  0
  6  1  1  0
  4  7  1  0
  7  8  1  0
  7  9  2  0
  8 10  1  0
 10 11  1  0
 11 12  2  0
 12 13  1  0
 13 14  2  0
 14 15  1  0
 15 16  2  0
 16 11  1  0
 14 17  1  0
 18 17  1  6
 18 19  1  0
 19 20  1  0
 19 21  2  0
 20 22  1  0
 18 23  1  0
 23 24  1  0
 24 25  1  0
M  STY  2   1 SUP   2 SUP
M  SLB  2   1   1   2   2
M  SAL   1  2  26  27
M  SBL   1  1   2
M  SMT   1 OCH3
M  SBV   1   2    0.7144    0.4125
M  SAL   2  2  28  29
M  SBL   2  1   4
M  SMT   2 OCH3
M  SBV   2   4   -0.7144   -0.4125
M  END
$$$$
