
     RDKit          3D

 29 30  0  2  0  0  0  0  0  0999 V2000
   19.9416    5.7406    5.9316 C   0  0  0  0  0  0  0  0  0  0  0  0
   19.5803    4.4498    5.6294 C   0  0  0  0  0  0  0  0  0  0  0  0
   19.2754    4.1117    4.3375 C   0  0  0  0  0  0  0  0  0  0  0  0
   19.3107    5.0271    3.2780 C   0  0  0  0  0  0  0  0  0  0  0  0
   19.6765    6.3001    3.6306 C   0  0  0  0  0  0  0  0  0  0  0  0
   19.9932    6.6771    4.9365 C   0  0  0  0  0  0  0  0  0  0  0  0
   18.9730    4.5840    1.9433 C   0  0  0  0  0  0  0  0  0  0  0  0
   18.3810    5.3492    0.8527 C   0  0  0  0  0  0  0  0  0  0  0  0
   19.2180    3.3474    1.6488 O   0  0  0  0  0  0  0  0  0  0  0  0
   18.6681    4.9581   -0.4407 O   0  0  0  0  0  0  0  0  0  0  0  0
   18.3427    5.8201   -1.4945 C   0  0  0  0  0  0  0  0  0  0  0  0
   18.8924    5.6787   -2.7323 C   0  0  0  0  0  0  0  0  0  0  0  0
   18.5538    6.5419   -3.7514 C   0  0  0  0  0  0  0  0  0  0  0  0
   17.6622    7.5771   -3.5940 C   0  0  0  0  0  0  0  0  0  0  0  0
   17.1068    7.7183   -2.3394 C   0  0  0  0  0  0  0  0  0  0  0  0
   17.4356    6.8570   -1.2968 C   0  0  0  0  0  0  0  0  0  0  0  0
   17.3286    8.4663   -4.6960 C   0  0  0  0  0  0  0  0  0  0  0  0
   16.1236    8.0801   -5.5089 C   0  0  1  0  0  0  0  0  0  0  0  0
   14.8689    8.0080   -4.7450 C   0  0  0  0  0  0  0  0  0  0  0  0
   14.2022    6.7764   -4.5928 N   0  0  0  0  0  0  0  0  0  0  0  0
   14.3760    9.0278   -4.2220 O   0  0  0  0  0  0  0  0  0  0  0  0
   12.9119    6.6882   -3.9289 C   0  0  0  0  0  0  0  0  0  0  0  0
   16.0012    8.8164   -6.6781 O   0  0  0  0  0  0  0  0  0  0  0  0
   17.0434    8.6755   -7.5512 C   0  0  0  0  0  0  0  0  0  0  0  0
   17.8518    9.9568   -7.5268 C   0  0  0  0  0  0  0  0  0  0  0  0
   19.5088    3.4501    6.5964 O   0  0  0  0  0  0  0  0  0  0  0  0
   20.0262    3.5789    7.8890 C   0  0  0  0  0  0  0  0  0  0  0  0
   14.7913    5.6526   -5.0833 O   0  0  0  0  0  0  0  0  0  0  0  0
   15.8900    5.9534   -5.8766 C   0  0  0  0  0  0  0  0  0  0  0  0
 26 27  1  0
  2 26  1  0
 28 29  1  0
 20 28  1  0
  1  2  2  0
  2  3  1  0
  3  4  2  0
  4  5  1  0
  5  6  2  0
  6  1  1  0
  4  7  1  0
  7  8  1  0
  7  9  2  0
  8 10  1  0
 10 11  1  0
 11 12  2  0
 12 13  1  0
 13 14  2  0
 14 15  1  0
 15 16  2  0
 16 11  1  0
 14 17  1  0
 18 17  1  1
 18 19  1  0
 19 20  1  0
 19 21  2  0
 20 22  1  0
 18 23  1  0
 23 24  1  0
 24 25  1  0
M  STY  2   1 SUP   2 SUP
M  SLB  2   1   1   2   2
M  SAL   1  2  26  27
M  SBL   1  1   2
M  SMT   1 OCH3
M  SBV   1   2    0.7144    0.4125
M  SAL   2  2  28  29
M  SBL   2  1   4
M  SMT   2 OCH3
M  SBV   2   4   -0.7144   -0.4125
M  END
$$$$
