
     RDKit          3D

 29 30  0  2  0  0  0  0  0  0999 V2000
   17.1575    9.1747  -10.3987 C   0  0  0  0  0  0  0  0  0  0  0  0
   15.8204    8.8842  -10.2741 C   0  0  0  0  0  0  0  0  0  0  0  0
   15.2976    8.5937   -9.0418 C   0  0  0  0  0  0  0  0  0  0  0  0
   16.0646    8.5746   -7.8700 C   0  0  0  0  0  0  0  0  0  0  0  0
   17.3911    8.8708   -8.0469 C   0  0  0  0  0  0  0  0  0  0  0  0
   17.9549    9.1709   -9.2878 C   0  0  0  0  0  0  0  0  0  0  0  0
   15.4305    8.2572   -6.6094 C   0  0  0  0  0  0  0  0  0  0  0  0
   15.9987    7.5813   -5.4494 C   0  0  0  0  0  0  0  0  0  0  0  0
   14.1930    8.6080   -6.4628 O   0  0  0  0  0  0  0  0  0  0  0  0
   16.1795    8.3200   -4.2962 O   0  0  0  0  0  0  0  0  0  0  0  0
   16.9445    7.7747   -3.2583 C   0  0  0  0  0  0  0  0  0  0  0  0
   17.2173    8.4765   -2.1238 C   0  0  0  0  0  0  0  0  0  0  0  0
   17.9731    7.9148   -1.1179 C   0  0  0  0  0  0  0  0  0  0  0  0
   18.4898    6.6422   -1.1878 C   0  0  0  0  0  0  0  0  0  0  0  0
   18.2121    5.9335   -2.3380 C   0  0  0  0  0  0  0  0  0  0  0  0
   17.4507    6.4828   -3.3654 C   0  0  0  0  0  0  0  0  0  0  0  0
   19.2817    6.0835   -0.1028 C   0  0  0  0  0  0  0  0  0  0  0  0
   18.5317    5.7693    1.1624 C   0  0  1  0  0  0  0  0  0  0  0  0
   18.7789    4.4232    1.7009 C   0  0  0  0  0  0  0  0  0  0  0  0
   18.2376    4.0482    2.9462 N   0  0  0  0  0  0  0  0  0  0  0  0
   19.4668    3.5955    1.0698 O   0  0  0  0  0  0  0  0  0  0  0  0
   17.4528    4.9764    3.7437 C   0  0  0  0  0  0  0  0  0  0  0  0
   18.6498    6.7638    2.1222 O   0  0  0  0  0  0  0  0  0  0  0  0
   19.8367    7.4410    2.0971 C   0  0  0  0  0  0  0  0  0  0  0  0
   20.9577    6.4259    2.1910 C   0  0  0  0  0  0  0  0  0  0  0  0
   14.9556    8.8715  -11.3657 O   0  0  0  0  0  0  0  0  0  0  0  0
   15.3566    9.1318  -12.6796 C   0  0  0  0  0  0  0  0  0  0  0  0
   18.4626    2.7856    3.3999 O   0  0  0  0  0  0  0  0  0  0  0  0
   17.4168    2.3305    4.1912 C   0  0  0  0  0  0  0  0  0  0  0  0
 26 27  1  0
  2 26  1  0
 28 29  1  0
 20 28  1  0
  1  2  2  0
  2  3  1  0
  3  4  2  0
  4  5  1  0
  5  6  2  0
  6  1  1  0
  4  7  1  0
  7  8  1  0
  7  9  2  0
  8 10  1  0
 10 11  1  0
 11 12  2  0
 12 13  1  0
 13 14  2  0
 14 15  1  0
 15 16  2  0
 16 11  1  0
 14 17  1  0
 18 17  1  6
 18 19  1  0
 19 20  1  0
 19 21  2  0
 20 22  1  0
 18 23  1  0
 23 24  1  0
 24 25  1  0
M  STY  2   1 SUP   2 SUP
M  SLB  2   1   1   2   2
M  SAL   1  2  26  27
M  SBL   1  1   2
M  SMT   1 OCH3
M  SBV   1   2    0.7144    0.4125
M  SAL   2  2  28  29
M  SBL   2  1   4
M  SMT   2 OCH3
M  SBV   2   4   -0.7144   -0.4125
M  END
$$$$
