
     RDKit          3D

 29 30  0  2  0  0  0  0  0  0999 V2000
   17.0397    7.5681   -8.4580 C   0  0  0  0  0  0  0  0  0  0  0  0
   17.5924    8.5385   -7.6575 C   0  0  0  0  0  0  0  0  0  0  0  0
   17.4865    8.4406   -6.2953 C   0  0  0  0  0  0  0  0  0  0  0  0
   16.8314    7.3826   -5.6525 C   0  0  0  0  0  0  0  0  0  0  0  0
   16.2976    6.4415   -6.4939 C   0  0  0  0  0  0  0  0  0  0  0  0
   16.3878    6.5116   -7.8849 C   0  0  0  0  0  0  0  0  0  0  0  0
   16.7666    7.3584   -4.2078 C   0  0  0  0  0  0  0  0  0  0  0  0
   15.7051    6.8411   -3.3528 C   0  0  0  0  0  0  0  0  0  0  0  0
   17.7714    7.8556   -3.5604 O   0  0  0  0  0  0  0  0  0  0  0  0
   14.5009    7.5178   -3.3376 O   0  0  0  0  0  0  0  0  0  0  0  0
   14.4197    8.7358   -2.6523 C   0  0  0  0  0  0  0  0  0  0  0  0
   14.4156    8.7940   -1.2919 C   0  0  0  0  0  0  0  0  0  0  0  0
   14.3347   10.0069   -0.6433 C   0  0  0  0  0  0  0  0  0  0  0  0
   14.2549   11.2092   -1.3061 C   0  0  0  0  0  0  0  0  0  0  0  0
   14.2593   11.1477   -2.6840 C   0  0  0  0  0  0  0  0  0  0  0  0
   14.3403    9.9327   -3.3579 C   0  0  0  0  0  0  0  0  0  0  0  0
   14.1733   12.4701   -0.5848 C   0  0  0  0  0  0  0  0  0  0  0  0
   12.7907   12.9123   -0.1911 C   0  0  1  0  0  0  0  0  0  0  0  0
   12.6937   13.4828    1.1610 C   0  0  0  0  0  0  0  0  0  0  0  0
   12.3984   12.6528    2.2603 N   0  0  0  0  0  0  0  0  0  0  0  0
   12.8696   14.7022    1.3576 O   0  0  0  0  0  0  0  0  0  0  0  0
   12.4889   13.1412    3.6265 C   0  0  0  0  0  0  0  0  0  0  0  0
   12.1806   13.7021   -1.1544 O   0  0  0  0  0  0  0  0  0  0  0  0
   10.8601   13.9665   -0.9209 C   0  0  0  0  0  0  0  0  0  0  0  0
   10.7762   15.2108   -0.0603 C   0  0  0  0  0  0  0  0  0  0  0  0
   18.2687    9.6387   -8.1788 O   0  0  0  0  0  0  0  0  0  0  0  0
   18.7328    9.7149   -9.4955 C   0  0  0  0  0  0  0  0  0  0  0  0
   12.0214   11.3675    2.0225 O   0  0  0  0  0  0  0  0  0  0  0  0
   10.6399   11.2339    1.9981 C   0  0  0  0  0  0  0  0  0  0  0  0
 26 27  1  0
  2 26  1  0
 28 29  1  0
 20 28  1  0
  1  2  2  0
  2  3  1  0
  3  4  2  0
  4  5  1  0
  5  6  2  0
  6  1  1  0
  4  7  1  0
  7  8  1  0
  7  9  2  0
  8 10  1  0
 10 11  1  0
 11 12  2  0
 12 13  1  0
 13 14  2  0
 14 15  1  0
 15 16  2  0
 16 11  1  0
 14 17  1  0
 18 17  1  6
 18 19  1  0
 19 20  1  0
 19 21  2  0
 20 22  1  0
 18 23  1  0
 23 24  1  0
 24 25  1  0
M  STY  2   1 SUP   2 SUP
M  SLB  2   1   1   2   2
M  SAL   1  2  26  27
M  SBL   1  1   2
M  SMT   1 OCH3
M  SBV   1   2    0.7144    0.4125
M  SAL   2  2  28  29
M  SBL   2  1   4
M  SMT   2 OCH3
M  SBV   2   4   -0.7144   -0.4125
M  END
$$$$
