
     RDKit          3D

 29 30  0  2  0  0  0  0  0  0999 V2000
   17.5294    2.7712    5.1413 C   0  0  0  0  0  0  0  0  0  0  0  0
   18.7472    2.3571    4.6584 C   0  0  0  0  0  0  0  0  0  0  0  0
   19.3124    3.0022    3.5903 C   0  0  0  0  0  0  0  0  0  0  0  0
   18.7072    4.0874    2.9439 C   0  0  0  0  0  0  0  0  0  0  0  0
   17.4951    4.4619    3.4626 C   0  0  0  0  0  0  0  0  0  0  0  0
   16.8922    3.8262    4.5490 C   0  0  0  0  0  0  0  0  0  0  0  0
   19.3751    4.7102    1.8222 C   0  0  0  0  0  0  0  0  0  0  0  0
   18.9091    5.8037    0.9782 C   0  0  0  0  0  0  0  0  0  0  0  0
   20.5445    4.2567    1.5017 O   0  0  0  0  0  0  0  0  0  0  0  0
   19.7587    6.2648   -0.0086 O   0  0  0  0  0  0  0  0  0  0  0  0
   19.2100    6.8984   -1.1299 C   0  0  0  0  0  0  0  0  0  0  0  0
   19.4838    6.4788   -2.3960 C   0  0  0  0  0  0  0  0  0  0  0  0
   18.9296    7.1213   -3.4816 C   0  0  0  0  0  0  0  0  0  0  0  0
   18.0853    8.2006   -3.3652 C   0  0  0  0  0  0  0  0  0  0  0  0
   17.8095    8.6237   -2.0817 C   0  0  0  0  0  0  0  0  0  0  0  0
   18.3591    7.9883   -0.9721 C   0  0  0  0  0  0  0  0  0  0  0  0
   17.5181    8.8509   -4.5365 C   0  0  0  0  0  0  0  0  0  0  0  0
   16.1644    8.3586   -4.9692 C   0  0  1  0  0  0  0  0  0  0  0  0
   15.6365    9.0074   -6.1790 C   0  0  0  0  0  0  0  0  0  0  0  0
   15.0471   10.2843   -6.0979 N   0  0  0  0  0  0  0  0  0  0  0  0
   15.7004    8.4434   -7.2901 O   0  0  0  0  0  0  0  0  0  0  0  0
   14.6389   11.0094   -7.2899 C   0  0  0  0  0  0  0  0  0  0  0  0
   16.0832    6.9748   -5.0206 O   0  0  0  0  0  0  0  0  0  0  0  0
   14.9736    6.4472   -4.4218 C   0  0  0  0  0  0  0  0  0  0  0  0
   13.8035    6.6183   -5.3692 C   0  0  0  0  0  0  0  0  0  0  0  0
   19.4467    1.2901    5.2168 O   0  0  0  0  0  0  0  0  0  0  0  0
   19.1160    0.6968    6.4389 C   0  0  0  0  0  0  0  0  0  0  0  0
   14.8618   10.8387   -4.8695 O   0  0  0  0  0  0  0  0  0  0  0  0
   14.5199   12.1811   -4.9585 C   0  0  0  0  0  0  0  0  0  0  0  0
 26 27  1  0
  2 26  1  0
 28 29  1  0
 20 28  1  0
  1  2  2  0
  2  3  1  0
  3  4  2  0
  4  5  1  0
  5  6  2  0
  6  1  1  0
  4  7  1  0
  7  8  1  0
  7  9  2  0
  8 10  1  0
 10 11  1  0
 11 12  2  0
 12 13  1  0
 13 14  2  0
 14 15  1  0
 15 16  2  0
 16 11  1  0
 14 17  1  0
 18 17  1  6
 18 19  1  0
 19 20  1  0
 19 21  2  0
 20 22  1  0
 18 23  1  0
 23 24  1  0
 24 25  1  0
M  STY  2   1 SUP   2 SUP
M  SLB  2   1   1   2   2
M  SAL   1  2  26  27
M  SBL   1  1   2
M  SMT   1 OCH3
M  SBV   1   2    0.7144    0.4125
M  SAL   2  2  28  29
M  SBL   2  1   4
M  SMT   2 OCH3
M  SBV   2   4   -0.7144   -0.4125
M  END
$$$$
