
     RDKit          3D

 29 30  0  2  0  0  0  0  0  0999 V2000
   18.2882    9.3734    1.9323 C   0  0  0  0  0  0  0  0  0  0  0  0
   16.9770    9.2933    1.5298 C   0  0  0  0  0  0  0  0  0  0  0  0
   16.6650    8.6957    0.3374 C   0  0  0  0  0  0  0  0  0  0  0  0
   17.6280    8.1469   -0.5189 C   0  0  0  0  0  0  0  0  0  0  0  0
   18.9198    8.2518   -0.0729 C   0  0  0  0  0  0  0  0  0  0  0  0
   19.2712    8.8542    1.1360 C   0  0  0  0  0  0  0  0  0  0  0  0
   17.2098    7.5341   -1.7605 C   0  0  0  0  0  0  0  0  0  0  0  0
   18.0271    7.1405   -2.9018 C   0  0  0  0  0  0  0  0  0  0  0  0
   15.9467    7.2908   -1.9061 O   0  0  0  0  0  0  0  0  0  0  0  0
   17.4033    6.4906   -3.9490 O   0  0  0  0  0  0  0  0  0  0  0  0
   17.2895    7.1482   -5.1796 C   0  0  0  0  0  0  0  0  0  0  0  0
   16.4285    6.7206   -6.1440 C   0  0  0  0  0  0  0  0  0  0  0  0
   16.3371    7.3872   -7.3465 C   0  0  0  0  0  0  0  0  0  0  0  0
   17.0879    8.4994   -7.6477 C   0  0  0  0  0  0  0  0  0  0  0  0
   17.9592    8.9305   -6.6693 C   0  0  0  0  0  0  0  0  0  0  0  0
   18.0664    8.2711   -5.4483 C   0  0  0  0  0  0  0  0  0  0  0  0
   16.9608    9.1772   -8.9286 C   0  0  0  0  0  0  0  0  0  0  0  0
   15.7256   10.0167   -9.1069 C   0  0  1  0  0  0  0  0  0  0  0  0
   15.9508   11.4659   -8.9968 C   0  0  0  0  0  0  0  0  0  0  0  0
   14.8600   12.3413   -8.8283 N   0  0  0  0  0  0  0  0  0  0  0  0
   17.1025   11.9427   -9.0501 O   0  0  0  0  0  0  0  0  0  0  0  0
   15.0475   13.7802   -8.7407 C   0  0  0  0  0  0  0  0  0  0  0  0
   14.9932    9.6690  -10.2325 O   0  0  0  0  0  0  0  0  0  0  0  0
   15.6598    8.8736  -11.1219 C   0  0  0  0  0  0  0  0  0  0  0  0
   14.9183    7.5558  -11.2196 C   0  0  0  0  0  0  0  0  0  0  0  0
   15.9302    9.8024    2.2944 O   0  0  0  0  0  0  0  0  0  0  0  0
   14.6619   10.0929    1.7827 C   0  0  0  0  0  0  0  0  0  0  0  0
   13.6087   11.8137   -8.7474 O   0  0  0  0  0  0  0  0  0  0  0  0
   13.1827   11.7025   -7.4309 C   0  0  0  0  0  0  0  0  0  0  0  0
 26 27  1  0
  2 26  1  0
 28 29  1  0
 20 28  1  0
  1  2  2  0
  2  3  1  0
  3  4  2  0
  4  5  1  0
  5  6  2  0
  6  1  1  0
  4  7  1  0
  7  8  1  0
  7  9  2  0
  8 10  1  0
 10 11  1  0
 11 12  2  0
 12 13  1  0
 13 14  2  0
 14 15  1  0
 15 16  2  0
 16 11  1  0
 14 17  1  0
 18 17  1  6
 18 19  1  0
 19 20  1  0
 19 21  2  0
 20 22  1  0
 18 23  1  0
 23 24  1  0
 24 25  1  0
M  STY  2   1 SUP   2 SUP
M  SLB  2   1   1   2   2
M  SAL   1  2  26  27
M  SBL   1  1   2
M  SMT   1 OCH3
M  SBV   1   2    0.7144    0.4125
M  SAL   2  2  28  29
M  SBL   2  1   4
M  SMT   2 OCH3
M  SBV   2   4   -0.7144   -0.4125
M  END
$$$$
