
     RDKit          3D

 29 30  0  2  0  0  0  0  0  0999 V2000
   18.7203    8.6703    2.8739 C   0  0  0  0  0  0  0  0  0  0  0  0
   17.8474    7.6102    2.8292 C   0  0  0  0  0  0  0  0  0  0  0  0
   17.3329    7.2007    1.6276 C   0  0  0  0  0  0  0  0  0  0  0  0
   17.6517    7.8140    0.4094 C   0  0  0  0  0  0  0  0  0  0  0  0
   18.5255    8.8655    0.5071 C   0  0  0  0  0  0  0  0  0  0  0  0
   19.0675    9.3075    1.7148 C   0  0  0  0  0  0  0  0  0  0  0  0
   17.0618    7.3163   -0.8138 C   0  0  0  0  0  0  0  0  0  0  0  0
   17.2985    7.7566   -2.1833 C   0  0  0  0  0  0  0  0  0  0  0  0
   16.2057    6.3509   -0.7097 O   0  0  0  0  0  0  0  0  0  0  0  0
   16.5485    7.1751   -3.1871 O   0  0  0  0  0  0  0  0  0  0  0  0
   16.8382    7.4963   -4.5185 C   0  0  0  0  0  0  0  0  0  0  0  0
   17.5757    8.5927   -4.8473 C   0  0  0  0  0  0  0  0  0  0  0  0
   17.8457    8.8849   -6.1665 C   0  0  0  0  0  0  0  0  0  0  0  0
   17.4018    8.1113   -7.2132 C   0  0  0  0  0  0  0  0  0  0  0  0
   16.6550    7.0013   -6.8776 C   0  0  0  0  0  0  0  0  0  0  0  0
   16.3712    6.6889   -5.5514 C   0  0  0  0  0  0  0  0  0  0  0  0
   17.7101    8.4521   -8.5935 C   0  0  0  0  0  0  0  0  0  0  0  0
   16.7245    9.3559   -9.2820 C   0  0  1  0  0  0  0  0  0  0  0  0
   16.1782   10.4244   -8.4316 C   0  0  0  0  0  0  0  0  0  0  0  0
   15.0380   10.1857   -7.6395 N   0  0  0  0  0  0  0  0  0  0  0  0
   16.7101   11.5524   -8.3965 O   0  0  0  0  0  0  0  0  0  0  0  0
   14.7106   11.0334   -6.5047 C   0  0  0  0  0  0  0  0  0  0  0  0
   17.1814    9.8218  -10.5060 O   0  0  0  0  0  0  0  0  0  0  0  0
   16.3840    9.5038  -11.5696 C   0  0  0  0  0  0  0  0  0  0  0  0
   15.1246   10.3413  -11.4782 C   0  0  0  0  0  0  0  0  0  0  0  0
   17.4544    6.9196    3.9730 O   0  0  0  0  0  0  0  0  0  0  0  0
   18.1898    6.9006    5.1620 C   0  0  0  0  0  0  0  0  0  0  0  0
   14.2344    9.1345   -7.9556 O   0  0  0  0  0  0  0  0  0  0  0  0
   13.3800    9.4394   -9.0063 C   0  0  0  0  0  0  0  0  0  0  0  0
 26 27  1  0
  2 26  1  0
 28 29  1  0
 20 28  1  0
  1  2  2  0
  2  3  1  0
  3  4  2  0
  4  5  1  0
  5  6  2  0
  6  1  1  0
  4  7  1  0
  7  8  1  0
  7  9  2  0
  8 10  1  0
 10 11  1  0
 11 12  2  0
 12 13  1  0
 13 14  2  0
 14 15  1  0
 15 16  2  0
 16 11  1  0
 14 17  1  0
 18 17  1  1
 18 19  1  0
 19 20  1  0
 19 21  2  0
 20 22  1  0
 18 23  1  0
 23 24  1  0
 24 25  1  0
M  STY  2   1 SUP   2 SUP
M  SLB  2   1   1   2   2
M  SAL   1  2  26  27
M  SBL   1  1   2
M  SMT   1 OCH3
M  SBV   1   2    0.7144    0.4125
M  SAL   2  2  28  29
M  SBL   2  1   4
M  SMT   2 OCH3
M  SBV   2   4   -0.7144   -0.4125
M  END
$$$$
