
     RDKit          3D

 29 30  0  2  0  0  0  0  0  0999 V2000
   16.6698    9.5527  -10.6922 C   0  0  0  0  0  0  0  0  0  0  0  0
   15.3969    9.5643  -10.1750 C   0  0  0  0  0  0  0  0  0  0  0  0
   15.1788    9.1408   -8.8907 C   0  0  0  0  0  0  0  0  0  0  0  0
   16.2026    8.6845   -8.0508 C   0  0  0  0  0  0  0  0  0  0  0  0
   17.4528    8.6922   -8.6127 C   0  0  0  0  0  0  0  0  0  0  0  0
   17.7088    9.1171   -9.9172 C   0  0  0  0  0  0  0  0  0  0  0  0
   15.8827    8.2554   -6.7072 C   0  0  0  0  0  0  0  0  0  0  0  0
   16.5979    7.3095   -5.8592 C   0  0  0  0  0  0  0  0  0  0  0  0
   14.8255    8.7623   -6.1584 O   0  0  0  0  0  0  0  0  0  0  0  0
   17.7873    7.7229   -5.2912 O   0  0  0  0  0  0  0  0  0  0  0  0
   18.1040    7.2904   -3.9980 C   0  0  0  0  0  0  0  0  0  0  0  0
   18.8472    8.0527   -3.1491 C   0  0  0  0  0  0  0  0  0  0  0  0
   19.1440    7.6019   -1.8813 C   0  0  0  0  0  0  0  0  0  0  0  0
   18.7221    6.3852   -1.3988 C   0  0  0  0  0  0  0  0  0  0  0  0
   17.9696    5.6149   -2.2606 C   0  0  0  0  0  0  0  0  0  0  0  0
   17.6590    6.0521   -3.5449 C   0  0  0  0  0  0  0  0  0  0  0  0
   19.0545    5.9455   -0.0524 C   0  0  0  0  0  0  0  0  0  0  0  0
   18.0594    6.3005    1.0180 C   0  0  1  0  0  0  0  0  0  0  0  0
   18.4206    5.8364    2.3661 C   0  0  0  0  0  0  0  0  0  0  0  0
   17.4153    5.5683    3.3158 N   0  0  0  0  0  0  0  0  0  0  0  0
   19.6142    5.6730    2.6906 O   0  0  0  0  0  0  0  0  0  0  0  0
   17.7291    4.9845    4.6096 C   0  0  0  0  0  0  0  0  0  0  0  0
   17.6879    7.6367    0.9895 O   0  0  0  0  0  0  0  0  0  0  0  0
   18.5737    8.4866    1.5904 C   0  0  0  0  0  0  0  0  0  0  0  0
   18.2624    8.5167    3.0730 C   0  0  0  0  0  0  0  0  0  0  0  0
   14.2969    9.9958  -10.9121 O   0  0  0  0  0  0  0  0  0  0  0  0
   12.9704    9.8170  -10.5079 C   0  0  0  0  0  0  0  0  0  0  0  0
   16.1262    5.8678    3.0010 O   0  0  0  0  0  0  0  0  0  0  0  0
   15.3556    4.7232    2.8495 C   0  0  0  0  0  0  0  0  0  0  0  0
 26 27  1  0
  2 26  1  0
 28 29  1  0
 20 28  1  0
  1  2  2  0
  2  3  1  0
  3  4  2  0
  4  5  1  0
  5  6  2  0
  6  1  1  0
  4  7  1  0
  7  8  1  0
  7  9  2  0
  8 10  1  0
 10 11  1  0
 11 12  2  0
 12 13  1  0
 13 14  2  0
 14 15  1  0
 15 16  2  0
 16 11  1  0
 14 17  1  0
 18 17  1  6
 18 19  1  0
 19 20  1  0
 19 21  2  0
 20 22  1  0
 18 23  1  0
 23 24  1  0
 24 25  1  0
M  STY  2   1 SUP   2 SUP
M  SLB  2   1   1   2   2
M  SAL   1  2  26  27
M  SBL   1  1   2
M  SMT   1 OCH3
M  SBV   1   2    0.7144    0.4125
M  SAL   2  2  28  29
M  SBL   2  1   4
M  SMT   2 OCH3
M  SBV   2   4   -0.7144   -0.4125
M  END
$$$$
