
     RDKit          3D

 29 30  0  2  0  0  0  0  0  0999 V2000
   17.3352    9.2290  -10.1468 C   0  0  0  0  0  0  0  0  0  0  0  0
   16.2257    8.4935   -9.8065 C   0  0  0  0  0  0  0  0  0  0  0  0
   16.1075    7.9837   -8.5406 C   0  0  0  0  0  0  0  0  0  0  0  0
   17.0755    8.1721   -7.5461 C   0  0  0  0  0  0  0  0  0  0  0  0
   18.1620    8.9117   -7.9347 C   0  0  0  0  0  0  0  0  0  0  0  0
   18.3129    9.4450   -9.2156 C   0  0  0  0  0  0  0  0  0  0  0  0
   16.8697    7.5975   -6.2348 C   0  0  0  0  0  0  0  0  0  0  0  0
   17.4909    7.9707   -4.9698 C   0  0  0  0  0  0  0  0  0  0  0  0
   16.0268    6.6194   -6.1412 O   0  0  0  0  0  0  0  0  0  0  0  0
   17.0743    7.3149   -3.8276 O   0  0  0  0  0  0  0  0  0  0  0  0
   16.4764    8.0578   -2.8028 C   0  0  0  0  0  0  0  0  0  0  0  0
   16.8030    9.3603   -2.5772 C   0  0  0  0  0  0  0  0  0  0  0  0
   16.1985   10.0677   -1.5610 C   0  0  0  0  0  0  0  0  0  0  0  0
   15.2498    9.5230   -0.7277 C   0  0  0  0  0  0  0  0  0  0  0  0
   14.9207    8.2036   -0.9582 C   0  0  0  0  0  0  0  0  0  0  0  0
   15.5198    7.4717   -1.9792 C   0  0  0  0  0  0  0  0  0  0  0  0
   14.6324   10.3039    0.3332 C   0  0  0  0  0  0  0  0  0  0  0  0
   13.2210   10.7566    0.0782 C   0  0  1  0  0  0  0  0  0  0  0  0
   12.5426   11.3311    1.2499 C   0  0  0  0  0  0  0  0  0  0  0  0
   11.3047   10.8117    1.6768 N   0  0  0  0  0  0  0  0  0  0  0  0
   13.0468   12.2813    1.8820 O   0  0  0  0  0  0  0  0  0  0  0  0
   10.5890   11.3848    2.8049 C   0  0  0  0  0  0  0  0  0  0  0  0
   13.1032   11.5482   -1.0547 O   0  0  0  0  0  0  0  0  0  0  0  0
   13.2482   12.8886   -0.8301 C   0  0  0  0  0  0  0  0  0  0  0  0
   11.8652   13.4984   -0.7236 C   0  0  0  0  0  0  0  0  0  0  0  0
   15.1955    8.2380  -10.7082 O   0  0  0  0  0  0  0  0  0  0  0  0
   15.2040    8.6623  -12.0405 C   0  0  0  0  0  0  0  0  0  0  0  0
   10.7794    9.7495    1.0086 O   0  0  0  0  0  0  0  0  0  0  0  0
    9.7412    9.1599    1.7169 C   0  0  0  0  0  0  0  0  0  0  0  0
 26 27  1  0
  2 26  1  0
 28 29  1  0
 20 28  1  0
  1  2  2  0
  2  3  1  0
  3  4  2  0
  4  5  1  0
  5  6  2  0
  6  1  1  0
  4  7  1  0
  7  8  1  0
  7  9  2  0
  8 10  1  0
 10 11  1  0
 11 12  2  0
 12 13  1  0
 13 14  2  0
 14 15  1  0
 15 16  2  0
 16 11  1  0
 14 17  1  0
 18 17  1  1
 18 19  1  0
 19 20  1  0
 19 21  2  0
 20 22  1  0
 18 23  1  0
 23 24  1  0
 24 25  1  0
M  STY  2   1 SUP   2 SUP
M  SLB  2   1   1   2   2
M  SAL   1  2  26  27
M  SBL   1  1   2
M  SMT   1 OCH3
M  SBV   1   2    0.7144    0.4125
M  SAL   2  2  28  29
M  SBL   2  1   4
M  SMT   2 OCH3
M  SBV   2   4   -0.7144   -0.4125
M  END
$$$$
