
     RDKit          3D

 29 30  0  2  0  0  0  0  0  0999 V2000
   12.9241   12.8009   -3.3319 C   0  0  0  0  0  0  0  0  0  0  0  0
   12.7423   12.1481   -4.5271 C   0  0  0  0  0  0  0  0  0  0  0  0
   13.6096   11.1561   -4.9012 C   0  0  0  0  0  0  0  0  0  0  0  0
   14.6996   10.7567   -4.1175 C   0  0  0  0  0  0  0  0  0  0  0  0
   14.8377   11.4374   -2.9360 C   0  0  0  0  0  0  0  0  0  0  0  0
   13.9722   12.4525   -2.5256 C   0  0  0  0  0  0  0  0  0  0  0  0
   15.5660    9.6992   -4.5897 C   0  0  0  0  0  0  0  0  0  0  0  0
   16.1518    8.5975   -3.8357 C   0  0  0  0  0  0  0  0  0  0  0  0
   15.8805    9.7061   -5.8455 O   0  0  0  0  0  0  0  0  0  0  0  0
   17.4400    8.7527   -3.3616 O   0  0  0  0  0  0  0  0  0  0  0  0
   17.9184    7.8538   -2.4009 C   0  0  0  0  0  0  0  0  0  0  0  0
   17.1202    6.8944   -1.8564 C   0  0  0  0  0  0  0  0  0  0  0  0
   17.6177    6.0226   -0.9124 C   0  0  0  0  0  0  0  0  0  0  0  0
   18.9184    6.0598   -0.4673 C   0  0  0  0  0  0  0  0  0  0  0  0
   19.7249    7.0324   -1.0203 C   0  0  0  0  0  0  0  0  0  0  0  0
   19.2416    7.9224   -1.9749 C   0  0  0  0  0  0  0  0  0  0  0  0
   19.4069    5.1197    0.5298 C   0  0  0  0  0  0  0  0  0  0  0  0
   18.7364    5.1824    1.8746 C   0  0  1  0  0  0  0  0  0  0  0  0
   18.9604    6.4356    2.6111 C   0  0  0  0  0  0  0  0  0  0  0  0
   20.2228    6.7113    3.1723 N   0  0  0  0  0  0  0  0  0  0  0  0
   18.0442    7.2707    2.7511 O   0  0  0  0  0  0  0  0  0  0  0  0
   21.3639    5.8413    2.9392 C   0  0  0  0  0  0  0  0  0  0  0  0
   17.3996    4.8149    1.8302 O   0  0  0  0  0  0  0  0  0  0  0  0
   17.0181    3.9364    2.8053 C   0  0  0  0  0  0  0  0  0  0  0  0
   16.5435    4.7388    3.9997 C   0  0  0  0  0  0  0  0  0  0  0  0
   11.6953   12.4556   -5.3925 O   0  0  0  0  0  0  0  0  0  0  0  0
   10.7797   13.4887   -5.1706 C   0  0  0  0  0  0  0  0  0  0  0  0
   20.3620    7.8204    3.9477 O   0  0  0  0  0  0  0  0  0  0  0  0
   21.3202    8.6860    3.4381 C   0  0  0  0  0  0  0  0  0  0  0  0
 26 27  1  0
  2 26  1  0
 28 29  1  0
 20 28  1  0
  1  2  2  0
  2  3  1  0
  3  4  2  0
  4  5  1  0
  5  6  2  0
  6  1  1  0
  4  7  1  0
  7  8  1  0
  7  9  2  0
  8 10  1  0
 10 11  1  0
 11 12  2  0
 12 13  1  0
 13 14  2  0
 14 15  1  0
 15 16  2  0
 16 11  1  0
 14 17  1  0
 18 17  1  6
 18 19  1  0
 19 20  1  0
 19 21  2  0
 20 22  1  0
 18 23  1  0
 23 24  1  0
 24 25  1  0
M  STY  2   1 SUP   2 SUP
M  SLB  2   1   1   2   2
M  SAL   1  2  26  27
M  SBL   1  1   2
M  SMT   1 OCH3
M  SBV   1   2    0.7144    0.4125
M  SAL   2  2  28  29
M  SBL   2  1   4
M  SMT   2 OCH3
M  SBV   2   4   -0.7144   -0.4125
M  END
$$$$
