
     RDKit          3D

 29 30  0  2  0  0  0  0  0  0999 V2000
   21.3495    6.1324   -1.6817 C   0  0  0  0  0  0  0  0  0  0  0  0
   20.3342    5.2280   -1.4842 C   0  0  0  0  0  0  0  0  0  0  0  0
   19.0931    5.6677   -1.1065 C   0  0  0  0  0  0  0  0  0  0  0  0
   18.7889    7.0199   -0.9042 C   0  0  0  0  0  0  0  0  0  0  0  0
   19.8341    7.8814   -1.1137 C   0  0  0  0  0  0  0  0  0  0  0  0
   21.1098    7.4662   -1.4986 C   0  0  0  0  0  0  0  0  0  0  0  0
   17.4505    7.3963   -0.5055 C   0  0  0  0  0  0  0  0  0  0  0  0
   16.7531    8.6560   -0.7340 C   0  0  0  0  0  0  0  0  0  0  0  0
   16.7551    6.5173    0.1424 O   0  0  0  0  0  0  0  0  0  0  0  0
   15.3718    8.6384   -0.7338 O   0  0  0  0  0  0  0  0  0  0  0  0
   14.6813    9.8540   -0.8067 C   0  0  0  0  0  0  0  0  0  0  0  0
   14.4434   10.4731   -1.9959 C   0  0  0  0  0  0  0  0  0  0  0  0
   13.7610   11.6694   -2.0381 C   0  0  0  0  0  0  0  0  0  0  0  0
   13.2861   12.3033   -0.9139 C   0  0  0  0  0  0  0  0  0  0  0  0
   13.5283   11.6742    0.2894 C   0  0  0  0  0  0  0  0  0  0  0  0
   14.2156   10.4657    0.3534 C   0  0  0  0  0  0  0  0  0  0  0  0
   12.5675   13.5653   -1.0001 C   0  0  0  0  0  0  0  0  0  0  0  0
   11.0667   13.4685   -0.9794 C   0  0  1  0  0  0  0  0  0  0  0  0
   10.4118   13.8616   -2.2363 C   0  0  0  0  0  0  0  0  0  0  0  0
   10.5020   15.1900   -2.6965 N   0  0  0  0  0  0  0  0  0  0  0  0
    9.7697   13.0326   -2.9124 O   0  0  0  0  0  0  0  0  0  0  0  0
    9.8019   15.6284   -3.8927 C   0  0  0  0  0  0  0  0  0  0  0  0
   10.6098   12.2534   -0.4906 O   0  0  0  0  0  0  0  0  0  0  0  0
    9.5282   12.3445    0.3400 C   0  0  0  0  0  0  0  0  0  0  0  0
    9.8473   13.3634    1.4151 C   0  0  0  0  0  0  0  0  0  0  0  0
   20.5135    3.8574   -1.6540 O   0  0  0  0  0  0  0  0  0  0  0  0
   19.5120    2.9076   -1.4305 C   0  0  0  0  0  0  0  0  0  0  0  0
   11.2651   16.0712   -1.9953 O   0  0  0  0  0  0  0  0  0  0  0  0
   10.5039   17.1091   -1.4753 C   0  0  0  0  0  0  0  0  0  0  0  0
 26 27  1  0
  2 26  1  0
 28 29  1  0
 20 28  1  0
  1  2  2  0
  2  3  1  0
  3  4  2  0
  4  5  1  0
  5  6  2  0
  6  1  1  0
  4  7  1  0
  7  8  1  0
  7  9  2  0
  8 10  1  0
 10 11  1  0
 11 12  2  0
 12 13  1  0
 13 14  2  0
 14 15  1  0
 15 16  2  0
 16 11  1  0
 14 17  1  0
 18 17  1  6
 18 19  1  0
 19 20  1  0
 19 21  2  0
 20 22  1  0
 18 23  1  0
 23 24  1  0
 24 25  1  0
M  STY  2   1 SUP   2 SUP
M  SLB  2   1   1   2   2
M  SAL   1  2  26  27
M  SBL   1  1   2
M  SMT   1 OCH3
M  SBV   1   2    0.7144    0.4125
M  SAL   2  2  28  29
M  SBL   2  1   4
M  SMT   2 OCH3
M  SBV   2   4   -0.7144   -0.4125
M  END
$$$$
