
     RDKit          3D

 29 30  0  2  0  0  0  0  0  0999 V2000
   17.1086   10.0518  -10.8694 C   0  0  0  0  0  0  0  0  0  0  0  0
   15.8865    9.4478  -10.6979 C   0  0  0  0  0  0  0  0  0  0  0  0
   15.6170    8.7711   -9.5379 C   0  0  0  0  0  0  0  0  0  0  0  0
   16.5370    8.6547   -8.4882 C   0  0  0  0  0  0  0  0  0  0  0  0
   17.7400    9.2737   -8.7075 C   0  0  0  0  0  0  0  0  0  0  0  0
   18.0461    9.9708   -9.8772 C   0  0  0  0  0  0  0  0  0  0  0  0
   16.1689    7.9209   -7.2974 C   0  0  0  0  0  0  0  0  0  0  0  0
   17.0084    7.5367   -6.1691 C   0  0  0  0  0  0  0  0  0  0  0  0
   14.9357    7.5415   -7.1918 O   0  0  0  0  0  0  0  0  0  0  0  0
   17.0473    8.3809   -5.0764 O   0  0  0  0  0  0  0  0  0  0  0  0
   17.4288    7.8601   -3.8343 C   0  0  0  0  0  0  0  0  0  0  0  0
   18.4845    8.3656   -3.1386 C   0  0  0  0  0  0  0  0  0  0  0  0
   18.8379    7.8333   -1.9179 C   0  0  0  0  0  0  0  0  0  0  0  0
   18.1678    6.7841   -1.3336 C   0  0  0  0  0  0  0  0  0  0  0  0
   17.0989    6.2737   -2.0402 C   0  0  0  0  0  0  0  0  0  0  0  0
   16.7259    6.7972   -3.2747 C   0  0  0  0  0  0  0  0  0  0  0  0
   18.5705    6.2512   -0.0412 C   0  0  0  0  0  0  0  0  0  0  0  0
   17.9272    6.8876    1.1601 C   0  0  1  0  0  0  0  0  0  0  0  0
   18.2784    6.2624    2.4442 C   0  0  0  0  0  0  0  0  0  0  0  0
   17.4358    5.2855    3.0101 N   0  0  0  0  0  0  0  0  0  0  0  0
   19.3204    6.5830    3.0509 O   0  0  0  0  0  0  0  0  0  0  0  0
   17.7747    4.6207    4.2577 C   0  0  0  0  0  0  0  0  0  0  0  0
   18.0620    8.2681    1.1781 O   0  0  0  0  0  0  0  0  0  0  0  0
   16.8827    8.9559    1.1135 C   0  0  0  0  0  0  0  0  0  0  0  0
   16.5299    9.4143    2.5140 C   0  0  0  0  0  0  0  0  0  0  0  0
   14.8897    9.4936  -11.6695 O   0  0  0  0  0  0  0  0  0  0  0  0
   13.5248    9.5866  -11.3807 C   0  0  0  0  0  0  0  0  0  0  0  0
   16.2821    4.9675    2.3632 O   0  0  0  0  0  0  0  0  0  0  0  0
   16.4064    3.7878    1.6421 C   0  0  0  0  0  0  0  0  0  0  0  0
 26 27  1  0
  2 26  1  0
 28 29  1  0
 20 28  1  0
  1  2  2  0
  2  3  1  0
  3  4  2  0
  4  5  1  0
  5  6  2  0
  6  1  1  0
  4  7  1  0
  7  8  1  0
  7  9  2  0
  8 10  1  0
 10 11  1  0
 11 12  2  0
 12 13  1  0
 13 14  2  0
 14 15  1  0
 15 16  2  0
 16 11  1  0
 14 17  1  0
 18 17  1  6
 18 19  1  0
 19 20  1  0
 19 21  2  0
 20 22  1  0
 18 23  1  0
 23 24  1  0
 24 25  1  0
M  STY  2   1 SUP   2 SUP
M  SLB  2   1   1   2   2
M  SAL   1  2  26  27
M  SBL   1  1   2
M  SMT   1 OCH3
M  SBV   1   2    0.7144    0.4125
M  SAL   2  2  28  29
M  SBL   2  1   4
M  SMT   2 OCH3
M  SBV   2   4   -0.7144   -0.4125
M  END
$$$$
