
     RDKit          3D

 29 30  0  2  0  0  0  0  0  0999 V2000
   20.8251    4.3852    4.9018 C   0  0  0  0  0  0  0  0  0  0  0  0
   19.8946    3.4347    4.5577 C   0  0  0  0  0  0  0  0  0  0  0  0
   19.1781    3.5701    3.3982 C   0  0  0  0  0  0  0  0  0  0  0  0
   19.3414    4.6481    2.5189 C   0  0  0  0  0  0  0  0  0  0  0  0
   20.2803    5.5683    2.9065 C   0  0  0  0  0  0  0  0  0  0  0  0
   21.0268    5.4599    4.0807 C   0  0  0  0  0  0  0  0  0  0  0  0
   18.5420    4.7121    1.3153 C   0  0  0  0  0  0  0  0  0  0  0  0
   18.6704    5.6235    0.1847 C   0  0  0  0  0  0  0  0  0  0  0  0
   17.5760    3.8582    1.1984 O   0  0  0  0  0  0  0  0  0  0  0  0
   17.7149    5.5561   -0.8107 O   0  0  0  0  0  0  0  0  0  0  0  0
   17.7337    6.5150   -1.8304 C   0  0  0  0  0  0  0  0  0  0  0  0
   18.8325    6.7103   -2.6106 C   0  0  0  0  0  0  0  0  0  0  0  0
   18.8231    7.6615   -3.6075 C   0  0  0  0  0  0  0  0  0  0  0  0
   17.7342    8.4573   -3.8762 C   0  0  0  0  0  0  0  0  0  0  0  0
   16.6225    8.2576   -3.0845 C   0  0  0  0  0  0  0  0  0  0  0  0
   16.6118    7.3021   -2.0726 C   0  0  0  0  0  0  0  0  0  0  0  0
   17.7627    9.4495   -4.9397 C   0  0  0  0  0  0  0  0  0  0  0  0
   17.2110    9.0051   -6.2665 C   0  0  1  0  0  0  0  0  0  0  0  0
   15.8968    8.3489   -6.1928 C   0  0  0  0  0  0  0  0  0  0  0  0
   14.7526    8.9965   -6.6987 N   0  0  0  0  0  0  0  0  0  0  0  0
   15.7723    7.2161   -5.6850 O   0  0  0  0  0  0  0  0  0  0  0  0
   13.4380    8.3797   -6.6296 C   0  0  0  0  0  0  0  0  0  0  0  0
   17.2644    9.9975   -7.2342 O   0  0  0  0  0  0  0  0  0  0  0  0
   17.1622    9.5449   -8.5198 C   0  0  0  0  0  0  0  0  0  0  0  0
   18.4716    8.8768   -8.8872 C   0  0  0  0  0  0  0  0  0  0  0  0
   19.6421    2.3176    5.3503 O   0  0  0  0  0  0  0  0  0  0  0  0
   18.8430    1.2428    4.9488 C   0  0  0  0  0  0  0  0  0  0  0  0
   14.8965   10.2264   -7.2618 O   0  0  0  0  0  0  0  0  0  0  0  0
   14.3360   11.2212   -6.4724 C   0  0  0  0  0  0  0  0  0  0  0  0
 26 27  1  0
  2 26  1  0
 28 29  1  0
 20 28  1  0
  1  2  2  0
  2  3  1  0
  3  4  2  0
  4  5  1  0
  5  6  2  0
  6  1  1  0
  4  7  1  0
  7  8  1  0
  7  9  2  0
  8 10  1  0
 10 11  1  0
 11 12  2  0
 12 13  1  0
 13 14  2  0
 14 15  1  0
 15 16  2  0
 16 11  1  0
 14 17  1  0
 18 17  1  1
 18 19  1  0
 19 20  1  0
 19 21  2  0
 20 22  1  0
 18 23  1  0
 23 24  1  0
 24 25  1  0
M  STY  2   1 SUP   2 SUP
M  SLB  2   1   1   2   2
M  SAL   1  2  26  27
M  SBL   1  1   2
M  SMT   1 OCH3
M  SBV   1   2    0.7144    0.4125
M  SAL   2  2  28  29
M  SBL   2  1   4
M  SMT   2 OCH3
M  SBV   2   4   -0.7144   -0.4125
M  END
$$$$
