
     RDKit          3D

 29 30  0  2  0  0  0  0  0  0999 V2000
   14.1196    7.3007    3.0211 C   0  0  0  0  0  0  0  0  0  0  0  0
   15.2419    6.5112    2.9511 C   0  0  0  0  0  0  0  0  0  0  0  0
   15.8533    6.3006    1.7436 C   0  0  0  0  0  0  0  0  0  0  0  0
   15.3908    6.8565    0.5441 C   0  0  0  0  0  0  0  0  0  0  0  0
   14.2696    7.6353    0.6666 C   0  0  0  0  0  0  0  0  0  0  0  0
   13.6231    7.8697    1.8811 C   0  0  0  0  0  0  0  0  0  0  0  0
   16.0983    6.5815   -0.6870 C   0  0  0  0  0  0  0  0  0  0  0  0
   16.0163    7.2860   -1.9608 C   0  0  0  0  0  0  0  0  0  0  0  0
   16.9212    5.5821   -0.6880 O   0  0  0  0  0  0  0  0  0  0  0  0
   17.0180    7.0655   -2.8861 O   0  0  0  0  0  0  0  0  0  0  0  0
   16.9175    7.6676   -4.1459 C   0  0  0  0  0  0  0  0  0  0  0  0
   17.8397    7.4445   -5.1227 C   0  0  0  0  0  0  0  0  0  0  0  0
   17.7159    8.0506   -6.3539 C   0  0  0  0  0  0  0  0  0  0  0  0
   16.6817    8.8990   -6.6729 C   0  0  0  0  0  0  0  0  0  0  0  0
   15.7490    9.1234   -5.6819 C   0  0  0  0  0  0  0  0  0  0  0  0
   15.8560    8.5210   -4.4318 C   0  0  0  0  0  0  0  0  0  0  0  0
   16.5847    9.5181   -7.9858 C   0  0  0  0  0  0  0  0  0  0  0  0
   15.4566    9.0369   -8.8564 C   0  0  1  0  0  0  0  0  0  0  0  0
   14.6390   10.1086   -9.4446 C   0  0  0  0  0  0  0  0  0  0  0  0
   15.2544   11.1707  -10.1357 N   0  0  0  0  0  0  0  0  0  0  0  0
   13.3955   10.0969   -9.3431 O   0  0  0  0  0  0  0  0  0  0  0  0
   14.8090   11.5749  -11.4592 C   0  0  0  0  0  0  0  0  0  0  0  0
   15.8583    8.0919   -9.7889 O   0  0  0  0  0  0  0  0  0  0  0  0
   14.8467    7.3226  -10.2917 C   0  0  0  0  0  0  0  0  0  0  0  0
   15.3534    6.6446  -11.5485 C   0  0  0  0  0  0  0  0  0  0  0  0
   15.7968    5.9035    4.0747 O   0  0  0  0  0  0  0  0  0  0  0  0
   16.9502    5.1138    4.0429 C   0  0  0  0  0  0  0  0  0  0  0  0
   16.2878   11.8236   -9.5386 O   0  0  0  0  0  0  0  0  0  0  0  0
   15.8437   12.6947   -8.5531 C   0  0  0  0  0  0  0  0  0  0  0  0
 26 27  1  0
  2 26  1  0
 28 29  1  0
 20 28  1  0
  1  2  2  0
  2  3  1  0
  3  4  2  0
  4  5  1  0
  5  6  2  0
  6  1  1  0
  4  7  1  0
  7  8  1  0
  7  9  2  0
  8 10  1  0
 10 11  1  0
 11 12  2  0
 12 13  1  0
 13 14  2  0
 14 15  1  0
 15 16  2  0
 16 11  1  0
 14 17  1  0
 18 17  1  6
 18 19  1  0
 19 20  1  0
 19 21  2  0
 20 22  1  0
 18 23  1  0
 23 24  1  0
 24 25  1  0
M  STY  2   1 SUP   2 SUP
M  SLB  2   1   1   2   2
M  SAL   1  2  26  27
M  SBL   1  1   2
M  SMT   1 OCH3
M  SBV   1   2    0.7144    0.4125
M  SAL   2  2  28  29
M  SBL   2  1   4
M  SMT   2 OCH3
M  SBV   2   4   -0.7144   -0.4125
M  END
$$$$
