
     RDKit          3D

 29 30  0  2  0  0  0  0  0  0999 V2000
   16.3403   10.2112  -10.9687 C   0  0  0  0  0  0  0  0  0  0  0  0
   15.1250    9.7182  -10.5589 C   0  0  0  0  0  0  0  0  0  0  0  0
   15.0075    9.1316   -9.3267 C   0  0  0  0  0  0  0  0  0  0  0  0
   16.0802    9.0008   -8.4357 C   0  0  0  0  0  0  0  0  0  0  0  0
   17.2697    9.5076   -8.8905 C   0  0  0  0  0  0  0  0  0  0  0  0
   17.4231   10.1109  -10.1396 C   0  0  0  0  0  0  0  0  0  0  0  0
   15.8669    8.3671   -7.1532 C   0  0  0  0  0  0  0  0  0  0  0  0
   16.8416    8.0736   -6.1096 C   0  0  0  0  0  0  0  0  0  0  0  0
   14.6589    8.0008   -6.8660 O   0  0  0  0  0  0  0  0  0  0  0  0
   16.4620    7.2178   -5.0938 O   0  0  0  0  0  0  0  0  0  0  0  0
   17.2208    7.1876   -3.9178 C   0  0  0  0  0  0  0  0  0  0  0  0
   17.9675    8.2541   -3.5188 C   0  0  0  0  0  0  0  0  0  0  0  0
   18.7050    8.1966   -2.3563 C   0  0  0  0  0  0  0  0  0  0  0  0
   18.7372    7.0895   -1.5412 C   0  0  0  0  0  0  0  0  0  0  0  0
   17.9801    6.0106   -1.9474 C   0  0  0  0  0  0  0  0  0  0  0  0
   17.2284    6.0486   -3.1181 C   0  0  0  0  0  0  0  0  0  0  0  0
   19.5271    7.0686   -0.3196 C   0  0  0  0  0  0  0  0  0  0  0  0
   18.8907    7.7074    0.8841 C   0  0  1  0  0  0  0  0  0  0  0  0
   17.6296    7.0831    1.3119 C   0  0  0  0  0  0  0  0  0  0  0  0
   16.4739    7.8694    1.4873 N   0  0  0  0  0  0  0  0  0  0  0  0
   17.5606    5.8558    1.5256 O   0  0  0  0  0  0  0  0  0  0  0  0
   15.1962    7.2731    1.8410 C   0  0  0  0  0  0  0  0  0  0  0  0
   19.7812    7.8955    1.9309 O   0  0  0  0  0  0  0  0  0  0  0  0
   20.4743    6.7757    2.2967 C   0  0  0  0  0  0  0  0  0  0  0  0
   19.5896    5.9552    3.2131 C   0  0  0  0  0  0  0  0  0  0  0  0
   13.9849    9.7894  -11.3556 O   0  0  0  0  0  0  0  0  0  0  0  0
   12.9419    8.8595  -11.3069 C   0  0  0  0  0  0  0  0  0  0  0  0
   16.5712    9.2157    1.3185 O   0  0  0  0  0  0  0  0  0  0  0  0
   16.6464    9.8814    2.5344 C   0  0  0  0  0  0  0  0  0  0  0  0
 26 27  1  0
  2 26  1  0
 28 29  1  0
 20 28  1  0
  1  2  2  0
  2  3  1  0
  3  4  2  0
  4  5  1  0
  5  6  2  0
  6  1  1  0
  4  7  1  0
  7  8  1  0
  7  9  2  0
  8 10  1  0
 10 11  1  0
 11 12  2  0
 12 13  1  0
 13 14  2  0
 14 15  1  0
 15 16  2  0
 16 11  1  0
 14 17  1  0
 18 17  1  6
 18 19  1  0
 19 20  1  0
 19 21  2  0
 20 22  1  0
 18 23  1  0
 23 24  1  0
 24 25  1  0
M  STY  2   1 SUP   2 SUP
M  SLB  2   1   1   2   2
M  SAL   1  2  26  27
M  SBL   1  1   2
M  SMT   1 OCH3
M  SBV   1   2    0.7144    0.4125
M  SAL   2  2  28  29
M  SBL   2  1   4
M  SMT   2 OCH3
M  SBV   2   4   -0.7144   -0.4125
M  END
$$$$
