
     RDKit          3D

 29 30  0  2  0  0  0  0  0  0999 V2000
   20.0893    4.9387    5.2088 C   0  0  0  0  0  0  0  0  0  0  0  0
   20.8648    4.0804    4.4673 C   0  0  0  0  0  0  0  0  0  0  0  0
   20.7319    4.0460    3.1044 C   0  0  0  0  0  0  0  0  0  0  0  0
   19.8289    4.8547    2.4027 C   0  0  0  0  0  0  0  0  0  0  0  0
   19.0791    5.6926    3.1866 C   0  0  0  0  0  0  0  0  0  0  0  0
   19.1901    5.7521    4.5766 C   0  0  0  0  0  0  0  0  0  0  0  0
   19.7539    4.7533    0.9619 C   0  0  0  0  0  0  0  0  0  0  0  0
   18.7249    5.2664    0.0656 C   0  0  0  0  0  0  0  0  0  0  0  0
   20.7151    4.1287    0.3602 O   0  0  0  0  0  0  0  0  0  0  0  0
   19.1057    6.1788   -0.8992 O   0  0  0  0  0  0  0  0  0  0  0  0
   18.1202    6.7552   -1.7094 C   0  0  0  0  0  0  0  0  0  0  0  0
   16.8120    6.7884   -1.3332 C   0  0  0  0  0  0  0  0  0  0  0  0
   15.8628    7.3623   -2.1507 C   0  0  0  0  0  0  0  0  0  0  0  0
   16.1623    7.9256   -3.3690 C   0  0  0  0  0  0  0  0  0  0  0  0
   17.4881    7.8906   -3.7478 C   0  0  0  0  0  0  0  0  0  0  0  0
   18.4619    7.3157   -2.9366 C   0  0  0  0  0  0  0  0  0  0  0  0
   15.1314    8.5243   -4.2028 C   0  0  0  0  0  0  0  0  0  0  0  0
   14.8959    9.9958   -3.9997 C   0  0  1  0  0  0  0  0  0  0  0  0
   13.7874   10.5519   -4.7904 C   0  0  0  0  0  0  0  0  0  0  0  0
   13.9137   10.6917   -6.1864 N   0  0  0  0  0  0  0  0  0  0  0  0
   12.7237   10.9071   -4.2437 O   0  0  0  0  0  0  0  0  0  0  0  0
   12.8204   11.1959   -7.0012 C   0  0  0  0  0  0  0  0  0  0  0  0
   14.8362   10.3543   -2.6611 O   0  0  0  0  0  0  0  0  0  0  0  0
   15.4639   11.5300   -2.3582 C   0  0  0  0  0  0  0  0  0  0  0  0
   14.5577   12.6680   -2.7821 C   0  0  0  0  0  0  0  0  0  0  0  0
   21.7983    3.2271    5.0504 O   0  0  0  0  0  0  0  0  0  0  0  0
   22.0055    3.1256    6.4295 C   0  0  0  0  0  0  0  0  0  0  0  0
   15.0913   10.3429   -6.7715 O   0  0  0  0  0  0  0  0  0  0  0  0
   15.9356   11.4352   -6.9166 C   0  0  0  0  0  0  0  0  0  0  0  0
 26 27  1  0
  2 26  1  0
 28 29  1  0
 20 28  1  0
  1  2  2  0
  2  3  1  0
  3  4  2  0
  4  5  1  0
  5  6  2  0
  6  1  1  0
  4  7  1  0
  7  8  1  0
  7  9  2  0
  8 10  1  0
 10 11  1  0
 11 12  2  0
 12 13  1  0
 13 14  2  0
 14 15  1  0
 15 16  2  0
 16 11  1  0
 14 17  1  0
 18 17  1  1
 18 19  1  0
 19 20  1  0
 19 21  2  0
 20 22  1  0
 18 23  1  0
 23 24  1  0
 24 25  1  0
M  STY  2   1 SUP   2 SUP
M  SLB  2   1   1   2   2
M  SAL   1  2  26  27
M  SBL   1  1   2
M  SMT   1 OCH3
M  SBV   1   2    0.7144    0.4125
M  SAL   2  2  28  29
M  SBL   2  1   4
M  SMT   2 OCH3
M  SBV   2   4   -0.7144   -0.4125
M  END
$$$$
