
     RDKit          3D

 29 30  0  2  0  0  0  0  0  0999 V2000
   21.4133    6.9599    3.0163 C   0  0  0  0  0  0  0  0  0  0  0  0
   20.5512    5.9144    3.2431 C   0  0  0  0  0  0  0  0  0  0  0  0
   19.5913    5.6084    2.3150 C   0  0  0  0  0  0  0  0  0  0  0  0
   19.4318    6.3160    1.1169 C   0  0  0  0  0  0  0  0  0  0  0  0
   20.3152    7.3486    0.9377 C   0  0  0  0  0  0  0  0  0  0  0  0
   21.3040    7.6863    1.8629 C   0  0  0  0  0  0  0  0  0  0  0  0
   18.3907    5.9246    0.1924 C   0  0  0  0  0  0  0  0  0  0  0  0
   18.1811    6.3642   -1.1817 C   0  0  0  0  0  0  0  0  0  0  0  0
   17.5134    5.0708    0.6136 O   0  0  0  0  0  0  0  0  0  0  0  0
   17.2192    5.7121   -1.9286 O   0  0  0  0  0  0  0  0  0  0  0  0
   16.9892    6.1293   -3.2449 C   0  0  0  0  0  0  0  0  0  0  0  0
   18.0106    6.4764   -4.0758 C   0  0  0  0  0  0  0  0  0  0  0  0
   17.7551    6.8834   -5.3672 C   0  0  0  0  0  0  0  0  0  0  0  0
   16.4866    6.9651   -5.8919 C   0  0  0  0  0  0  0  0  0  0  0  0
   15.4537    6.6131   -5.0484 C   0  0  0  0  0  0  0  0  0  0  0  0
   15.6907    6.1994   -3.7408 C   0  0  0  0  0  0  0  0  0  0  0  0
   16.2579    7.3976   -7.2620 C   0  0  0  0  0  0  0  0  0  0  0  0
   16.1235    8.8814   -7.4678 C   0  0  1  0  0  0  0  0  0  0  0  0
   15.4225    9.2658   -8.7023 C   0  0  0  0  0  0  0  0  0  0  0  0
   16.1261    9.8891   -9.7515 N   0  0  0  0  0  0  0  0  0  0  0  0
   14.2018    9.0489   -8.8417 O   0  0  0  0  0  0  0  0  0  0  0  0
   17.5502   10.1640   -9.6528 C   0  0  0  0  0  0  0  0  0  0  0  0
   15.6424    9.5416   -6.3468 O   0  0  0  0  0  0  0  0  0  0  0  0
   15.9123   10.8811   -6.3156 C   0  0  0  0  0  0  0  0  0  0  0  0
   17.2368   11.0760   -5.6059 C   0  0  0  0  0  0  0  0  0  0  0  0
   20.6103    5.1365    4.3968 O   0  0  0  0  0  0  0  0  0  0  0  0
   21.5769    5.2958    5.3944 C   0  0  0  0  0  0  0  0  0  0  0  0
   15.4443   10.2357  -10.8765 O   0  0  0  0  0  0  0  0  0  0  0  0
   15.9691    9.6206  -12.0049 C   0  0  0  0  0  0  0  0  0  0  0  0
 26 27  1  0
  2 26  1  0
 28 29  1  0
 20 28  1  0
  1  2  2  0
  2  3  1  0
  3  4  2  0
  4  5  1  0
  5  6  2  0
  6  1  1  0
  4  7  1  0
  7  8  1  0
  7  9  2  0
  8 10  1  0
 10 11  1  0
 11 12  2  0
 12 13  1  0
 13 14  2  0
 14 15  1  0
 15 16  2  0
 16 11  1  0
 14 17  1  0
 18 17  1  1
 18 19  1  0
 19 20  1  0
 19 21  2  0
 20 22  1  0
 18 23  1  0
 23 24  1  0
 24 25  1  0
M  STY  2   1 SUP   2 SUP
M  SLB  2   1   1   2   2
M  SAL   1  2  26  27
M  SBL   1  1   2
M  SMT   1 OCH3
M  SBV   1   2    0.7144    0.4125
M  SAL   2  2  28  29
M  SBL   2  1   4
M  SMT   2 OCH3
M  SBV   2   4   -0.7144   -0.4125
M  END
$$$$
