
     RDKit          3D

 29 30  0  2  0  0  0  0  0  0999 V2000
   14.8008    7.0124    3.7266 C   0  0  0  0  0  0  0  0  0  0  0  0
   13.9563    7.3502    2.6968 C   0  0  0  0  0  0  0  0  0  0  0  0
   14.3940    7.2691    1.4014 C   0  0  0  0  0  0  0  0  0  0  0  0
   15.6851    6.8514    1.0544 C   0  0  0  0  0  0  0  0  0  0  0  0
   16.4883    6.5259    2.1162 C   0  0  0  0  0  0  0  0  0  0  0  0
   16.0733    6.5975    3.4468 C   0  0  0  0  0  0  0  0  0  0  0  0
   16.0641    6.7952   -0.3403 C   0  0  0  0  0  0  0  0  0  0  0  0
   17.2596    7.3299   -0.9808 C   0  0  0  0  0  0  0  0  0  0  0  0
   15.2527    6.1963   -1.1520 O   0  0  0  0  0  0  0  0  0  0  0  0
   17.7611    6.6555   -2.0771 O   0  0  0  0  0  0  0  0  0  0  0  0
   17.7820    7.3045   -3.3173 C   0  0  0  0  0  0  0  0  0  0  0  0
   17.5013    8.6315   -3.4368 C   0  0  0  0  0  0  0  0  0  0  0  0
   17.5292    9.2447   -4.6704 C   0  0  0  0  0  0  0  0  0  0  0  0
   17.8340    8.5778   -5.8339 C   0  0  0  0  0  0  0  0  0  0  0  0
   18.1179    7.2338   -5.7103 C   0  0  0  0  0  0  0  0  0  0  0  0
   18.0950    6.5959   -4.4735 C   0  0  0  0  0  0  0  0  0  0  0  0
   17.8553    9.2617   -7.1179 C   0  0  0  0  0  0  0  0  0  0  0  0
   16.6301    9.0900   -7.9730 C   0  0  1  0  0  0  0  0  0  0  0  0
   15.4834    9.9186   -7.5708 C   0  0  0  0  0  0  0  0  0  0  0  0
   14.2815    9.8682   -8.3039 N   0  0  0  0  0  0  0  0  0  0  0  0
   15.5535   10.6751   -6.5812 O   0  0  0  0  0  0  0  0  0  0  0  0
   13.1730   10.7607   -8.0073 C   0  0  0  0  0  0  0  0  0  0  0  0
   16.9026    9.1695   -9.3307 O   0  0  0  0  0  0  0  0  0  0  0  0
   17.9354   10.0035   -9.6561 C   0  0  0  0  0  0  0  0  0  0  0  0
   17.3938   11.4171   -9.7211 C   0  0  0  0  0  0  0  0  0  0  0  0
   12.6495    7.7797    2.9149 O   0  0  0  0  0  0  0  0  0  0  0  0
   11.8207    7.2720    3.9200 C   0  0  0  0  0  0  0  0  0  0  0  0
   14.1703    8.9587   -9.3094 O   0  0  0  0  0  0  0  0  0  0  0  0
   13.5129    7.8096   -8.8917 C   0  0  0  0  0  0  0  0  0  0  0  0
 26 27  1  0
  2 26  1  0
 28 29  1  0
 20 28  1  0
  1  2  2  0
  2  3  1  0
  3  4  2  0
  4  5  1  0
  5  6  2  0
  6  1  1  0
  4  7  1  0
  7  8  1  0
  7  9  2  0
  8 10  1  0
 10 11  1  0
 11 12  2  0
 12 13  1  0
 13 14  2  0
 14 15  1  0
 15 16  2  0
 16 11  1  0
 14 17  1  0
 18 17  1  1
 18 19  1  0
 19 20  1  0
 19 21  2  0
 20 22  1  0
 18 23  1  0
 23 24  1  0
 24 25  1  0
M  STY  2   1 SUP   2 SUP
M  SLB  2   1   1   2   2
M  SAL   1  2  26  27
M  SBL   1  1   2
M  SMT   1 OCH3
M  SBV   1   2    0.7144    0.4125
M  SAL   2  2  28  29
M  SBL   2  1   4
M  SMT   2 OCH3
M  SBV   2   4   -0.7144   -0.4125
M  END
$$$$
