
     RDKit          3D

 29 30  0  2  0  0  0  0  0  0999 V2000
   20.1588    6.5029    6.0181 C   0  0  0  0  0  0  0  0  0  0  0  0
   19.8787    5.2059    5.6613 C   0  0  0  0  0  0  0  0  0  0  0  0
   19.8461    4.8547    4.3377 C   0  0  0  0  0  0  0  0  0  0  0  0
   20.0876    5.7623    3.2987 C   0  0  0  0  0  0  0  0  0  0  0  0
   20.3620    7.0420    3.7060 C   0  0  0  0  0  0  0  0  0  0  0  0
   20.4029    7.4324    5.0453 C   0  0  0  0  0  0  0  0  0  0  0  0
   20.0327    5.3055    1.9275 C   0  0  0  0  0  0  0  0  0  0  0  0
   20.4019    6.0232    0.7135 C   0  0  0  0  0  0  0  0  0  0  0  0
   19.6022    4.1024    1.7198 O   0  0  0  0  0  0  0  0  0  0  0  0
   20.2747    5.3609   -0.4921 O   0  0  0  0  0  0  0  0  0  0  0  0
   19.5001    5.9420   -1.5030 C   0  0  0  0  0  0  0  0  0  0  0  0
   18.2798    5.4451   -1.8464 C   0  0  0  0  0  0  0  0  0  0  0  0
   17.5387    6.0374   -2.8457 C   0  0  0  0  0  0  0  0  0  0  0  0
   17.9678    7.1404   -3.5459 C   0  0  0  0  0  0  0  0  0  0  0  0
   19.2043    7.6418   -3.1964 C   0  0  0  0  0  0  0  0  0  0  0  0
   19.9683    7.0581   -2.1900 C   0  0  0  0  0  0  0  0  0  0  0  0
   17.1545    7.7386   -4.5934 C   0  0  0  0  0  0  0  0  0  0  0  0
   15.9740    8.5455   -4.1271 C   0  0  1  0  0  0  0  0  0  0  0  0
   15.3101    9.3236   -5.1839 C   0  0  0  0  0  0  0  0  0  0  0  0
   14.4270   10.3678   -4.8459 N   0  0  0  0  0  0  0  0  0  0  0  0
   15.5151    9.0752   -6.3893 O   0  0  0  0  0  0  0  0  0  0  0  0
   13.8147   11.2044   -5.8650 C   0  0  0  0  0  0  0  0  0  0  0  0
   15.0837    7.8081   -3.3606 O   0  0  0  0  0  0  0  0  0  0  0  0
   14.2918    6.9523   -4.0738 C   0  0  0  0  0  0  0  0  0  0  0  0
   15.1740    6.2005   -5.0497 C   0  0  0  0  0  0  0  0  0  0  0  0
   19.6214    4.2128    6.6032 O   0  0  0  0  0  0  0  0  0  0  0  0
   18.9244    3.0340    6.3209 C   0  0  0  0  0  0  0  0  0  0  0  0
   14.1504   10.5864   -3.5321 O   0  0  0  0  0  0  0  0  0  0  0  0
   14.9742   11.5632   -2.9896 C   0  0  0  0  0  0  0  0  0  0  0  0
 26 27  1  0
  2 26  1  0
 28 29  1  0
 20 28  1  0
  1  2  2  0
  2  3  1  0
  3  4  2  0
  4  5  1  0
  5  6  2  0
  6  1  1  0
  4  7  1  0
  7  8  1  0
  7  9  2  0
  8 10  1  0
 10 11  1  0
 11 12  2  0
 12 13  1  0
 13 14  2  0
 14 15  1  0
 15 16  2  0
 16 11  1  0
 14 17  1  0
 18 17  1  6
 18 19  1  0
 19 20  1  0
 19 21  2  0
 20 22  1  0
 18 23  1  0
 23 24  1  0
 24 25  1  0
M  STY  2   1 SUP   2 SUP
M  SLB  2   1   1   2   2
M  SAL   1  2  26  27
M  SBL   1  1   2
M  SMT   1 OCH3
M  SBV   1   2    0.7144    0.4125
M  SAL   2  2  28  29
M  SBL   2  1   4
M  SMT   2 OCH3
M  SBV   2   4   -0.7144   -0.4125
M  END
$$$$
