
     RDKit          3D

 29 30  0  2  0  0  0  0  0  0999 V2000
   22.1663    7.5006    2.1170 C   0  0  0  0  0  0  0  0  0  0  0  0
   21.1533    7.0077    2.9035 C   0  0  0  0  0  0  0  0  0  0  0  0
   20.0862    6.3744    2.3235 C   0  0  0  0  0  0  0  0  0  0  0  0
   19.9625    6.1944    0.9400 C   0  0  0  0  0  0  0  0  0  0  0  0
   20.9977    6.7032    0.1997 C   0  0  0  0  0  0  0  0  0  0  0  0
   22.0986    7.3534    0.7592 C   0  0  0  0  0  0  0  0  0  0  0  0
   18.8008    5.5134    0.4119 C   0  0  0  0  0  0  0  0  0  0  0  0
   18.6192    4.9090   -0.9022 C   0  0  0  0  0  0  0  0  0  0  0  0
   17.7692    5.4119    1.1874 O   0  0  0  0  0  0  0  0  0  0  0  0
   17.4729    5.2250   -1.6054 O   0  0  0  0  0  0  0  0  0  0  0  0
   17.4939    6.3248   -2.4712 C   0  0  0  0  0  0  0  0  0  0  0  0
   18.2209    6.3171   -3.6224 C   0  0  0  0  0  0  0  0  0  0  0  0
   18.2232    7.4140   -4.4563 C   0  0  0  0  0  0  0  0  0  0  0  0
   17.5114    8.5605   -4.1914 C   0  0  0  0  0  0  0  0  0  0  0  0
   16.7758    8.5658   -3.0247 C   0  0  0  0  0  0  0  0  0  0  0  0
   16.7602    7.4682   -2.1691 C   0  0  0  0  0  0  0  0  0  0  0  0
   17.5377    9.6974   -5.0986 C   0  0  0  0  0  0  0  0  0  0  0  0
   16.6260    9.6062   -6.2914 C   0  0  1  0  0  0  0  0  0  0  0  0
   15.3598   10.3409   -6.1500 C   0  0  0  0  0  0  0  0  0  0  0  0
   14.1534    9.6411   -5.9511 N   0  0  0  0  0  0  0  0  0  0  0  0
   15.3309   11.5870   -6.2033 O   0  0  0  0  0  0  0  0  0  0  0  0
   12.8893   10.3391   -5.7832 C   0  0  0  0  0  0  0  0  0  0  0  0
   17.2734    9.8734   -7.4887 O   0  0  0  0  0  0  0  0  0  0  0  0
   16.6453    9.3801   -8.5978 C   0  0  0  0  0  0  0  0  0  0  0  0
   16.0848   10.5513   -9.3790 C   0  0  0  0  0  0  0  0  0  0  0  0
   21.1626    7.1252    4.2912 O   0  0  0  0  0  0  0  0  0  0  0  0
   20.1306    6.6709    5.1180 C   0  0  0  0  0  0  0  0  0  0  0  0
   14.1877    8.2816   -5.9176 O   0  0  0  0  0  0  0  0  0  0  0  0
   13.9604    7.7937   -4.6380 C   0  0  0  0  0  0  0  0  0  0  0  0
 26 27  1  0
  2 26  1  0
 28 29  1  0
 20 28  1  0
  1  2  2  0
  2  3  1  0
  3  4  2  0
  4  5  1  0
  5  6  2  0
  6  1  1  0
  4  7  1  0
  7  8  1  0
  7  9  2  0
  8 10  1  0
 10 11  1  0
 11 12  2  0
 12 13  1  0
 13 14  2  0
 14 15  1  0
 15 16  2  0
 16 11  1  0
 14 17  1  0
 18 17  1  1
 18 19  1  0
 19 20  1  0
 19 21  2  0
 20 22  1  0
 18 23  1  0
 23 24  1  0
 24 25  1  0
M  STY  2   1 SUP   2 SUP
M  SLB  2   1   1   2   2
M  SAL   1  2  26  27
M  SBL   1  1   2
M  SMT   1 OCH3
M  SBV   1   2    0.7144    0.4125
M  SAL   2  2  28  29
M  SBL   2  1   4
M  SMT   2 OCH3
M  SBV   2   4   -0.7144   -0.4125
M  END
$$$$
