
     RDKit          3D

 29 30  0  2  0  0  0  0  0  0999 V2000
   22.2128    5.5889    4.2906 C   0  0  0  0  0  0  0  0  0  0  0  0
   21.1980    4.6629    4.3176 C   0  0  0  0  0  0  0  0  0  0  0  0
   20.2901    4.6161    3.2929 C   0  0  0  0  0  0  0  0  0  0  0  0
   20.3354    5.4784    2.1901 C   0  0  0  0  0  0  0  0  0  0  0  0
   21.3651    6.3828    2.2100 C   0  0  0  0  0  0  0  0  0  0  0  0
   22.3061    6.4567    3.2380 C   0  0  0  0  0  0  0  0  0  0  0  0
   19.3352    5.3593    1.1522 C   0  0  0  0  0  0  0  0  0  0  0  0
   19.3130    5.9813   -0.1662 C   0  0  0  0  0  0  0  0  0  0  0  0
   18.3113    4.6063    1.3983 O   0  0  0  0  0  0  0  0  0  0  0  0
   18.3743    5.5338   -1.0755 O   0  0  0  0  0  0  0  0  0  0  0  0
   17.9318    6.4087   -2.0747 C   0  0  0  0  0  0  0  0  0  0  0  0
   16.6294    6.7958   -2.1633 C   0  0  0  0  0  0  0  0  0  0  0  0
   16.2214    7.6583   -3.1574 C   0  0  0  0  0  0  0  0  0  0  0  0
   17.0772    8.1737   -4.1024 C   0  0  0  0  0  0  0  0  0  0  0  0
   18.3960    7.7802   -4.0106 C   0  0  0  0  0  0  0  0  0  0  0  0
   18.8280    6.9099   -3.0141 C   0  0  0  0  0  0  0  0  0  0  0  0
   16.6082    9.0843   -5.1356 C   0  0  0  0  0  0  0  0  0  0  0  0
   15.9065    8.4464   -6.3030 C   0  0  1  0  0  0  0  0  0  0  0  0
   16.0510    9.1726   -7.5737 C   0  0  0  0  0  0  0  0  0  0  0  0
   15.4831   10.4528   -7.7263 N   0  0  0  0  0  0  0  0  0  0  0  0
   16.6740    8.6725   -8.5320 O   0  0  0  0  0  0  0  0  0  0  0  0
   15.6942   11.2385   -8.9311 C   0  0  0  0  0  0  0  0  0  0  0  0
   16.1780    7.0914   -6.4227 O   0  0  0  0  0  0  0  0  0  0  0  0
   15.4643    6.4518   -7.3971 C   0  0  0  0  0  0  0  0  0  0  0  0
   13.9907    6.6531   -7.1075 C   0  0  0  0  0  0  0  0  0  0  0  0
   21.0479    3.7519    5.3602 O   0  0  0  0  0  0  0  0  0  0  0  0
   20.0801    2.7429    5.3791 C   0  0  0  0  0  0  0  0  0  0  0  0
   14.7224   10.9519   -6.7150 O   0  0  0  0  0  0  0  0  0  0  0  0
   13.4200   11.1998   -7.1266 C   0  0  0  0  0  0  0  0  0  0  0  0
 26 27  1  0
  2 26  1  0
 28 29  1  0
 20 28  1  0
  1  2  2  0
  2  3  1  0
  3  4  2  0
  4  5  1  0
  5  6  2  0
  6  1  1  0
  4  7  1  0
  7  8  1  0
  7  9  2  0
  8 10  1  0
 10 11  1  0
 11 12  2  0
 12 13  1  0
 13 14  2  0
 14 15  1  0
 15 16  2  0
 16 11  1  0
 14 17  1  0
 18 17  1  1
 18 19  1  0
 19 20  1  0
 19 21  2  0
 20 22  1  0
 18 23  1  0
 23 24  1  0
 24 25  1  0
M  STY  2   1 SUP   2 SUP
M  SLB  2   1   1   2   2
M  SAL   1  2  26  27
M  SBL   1  1   2
M  SMT   1 OCH3
M  SBV   1   2    0.7144    0.4125
M  SAL   2  2  28  29
M  SBL   2  1   4
M  SMT   2 OCH3
M  SBV   2   4   -0.7144   -0.4125
M  END
$$$$
