
     RDKit          3D

 29 30  0  2  0  0  0  0  0  0999 V2000
   20.7462    5.7117    3.5243 C   0  0  0  0  0  0  0  0  0  0  0  0
   20.8769    6.5739    2.4625 C   0  0  0  0  0  0  0  0  0  0  0  0
   19.9476    6.5626    1.4563 C   0  0  0  0  0  0  0  0  0  0  0  0
   18.8426    5.7019    1.4446 C   0  0  0  0  0  0  0  0  0  0  0  0
   18.7570    4.8623    2.5245 C   0  0  0  0  0  0  0  0  0  0  0  0
   19.6863    4.8486    3.5657 C   0  0  0  0  0  0  0  0  0  0  0  0
   17.9093    5.7570    0.3410 C   0  0  0  0  0  0  0  0  0  0  0  0
   18.1908    5.8873   -1.0835 C   0  0  0  0  0  0  0  0  0  0  0  0
   16.6486    5.6831    0.6258 O   0  0  0  0  0  0  0  0  0  0  0  0
   18.6331    7.1119   -1.5449 O   0  0  0  0  0  0  0  0  0  0  0  0
   18.2578    7.5251   -2.8287 C   0  0  0  0  0  0  0  0  0  0  0  0
   17.9195    8.8167   -3.0958 C   0  0  0  0  0  0  0  0  0  0  0  0
   17.5540    9.1956   -4.3691 C   0  0  0  0  0  0  0  0  0  0  0  0
   17.5069    8.3204   -5.4289 C   0  0  0  0  0  0  0  0  0  0  0  0
   17.8500    7.0128   -5.1558 C   0  0  0  0  0  0  0  0  0  0  0  0
   18.2219    6.6099   -3.8765 C   0  0  0  0  0  0  0  0  0  0  0  0
   17.1179    8.7599   -6.7601 C   0  0  0  0  0  0  0  0  0  0  0  0
   15.6532    8.6526   -7.0844 C   0  0  1  0  0  0  0  0  0  0  0  0
   15.2427    9.3706   -8.3006 C   0  0  0  0  0  0  0  0  0  0  0  0
   14.5268   10.5798   -8.2016 N   0  0  0  0  0  0  0  0  0  0  0  0
   15.5186    8.9256   -9.4331 O   0  0  0  0  0  0  0  0  0  0  0  0
   14.0468   11.2772   -9.3833 C   0  0  0  0  0  0  0  0  0  0  0  0
   15.1846    7.3477   -7.0449 O   0  0  0  0  0  0  0  0  0  0  0  0
   13.8342    7.2224   -7.2146 C   0  0  0  0  0  0  0  0  0  0  0  0
   13.1703    7.4438   -5.8707 C   0  0  0  0  0  0  0  0  0  0  0  0
   21.9326    7.4767    2.3612 O   0  0  0  0  0  0  0  0  0  0  0  0
   22.9747    7.5632    3.2893 C   0  0  0  0  0  0  0  0  0  0  0  0
   14.2868   11.0945   -6.9654 O   0  0  0  0  0  0  0  0  0  0  0  0
   15.2337   12.0465   -6.6130 C   0  0  0  0  0  0  0  0  0  0  0  0
 26 27  1  0
  2 26  1  0
 28 29  1  0
 20 28  1  0
  1  2  2  0
  2  3  1  0
  3  4  2  0
  4  5  1  0
  5  6  2  0
  6  1  1  0
  4  7  1  0
  7  8  1  0
  7  9  2  0
  8 10  1  0
 10 11  1  0
 11 12  2  0
 12 13  1  0
 13 14  2  0
 14 15  1  0
 15 16  2  0
 16 11  1  0
 14 17  1  0
 18 17  1  6
 18 19  1  0
 19 20  1  0
 19 21  2  0
 20 22  1  0
 18 23  1  0
 23 24  1  0
 24 25  1  0
M  STY  2   1 SUP   2 SUP
M  SLB  2   1   1   2   2
M  SAL   1  2  26  27
M  SBL   1  1   2
M  SMT   1 OCH3
M  SBV   1   2    0.7144    0.4125
M  SAL   2  2  28  29
M  SBL   2  1   4
M  SMT   2 OCH3
M  SBV   2   4   -0.7144   -0.4125
M  END
$$$$
