
     RDKit          3D

 29 30  0  2  0  0  0  0  0  0999 V2000
   19.6296    4.5441    5.8231 C   0  0  0  0  0  0  0  0  0  0  0  0
   19.2246    3.5147    5.0083 C   0  0  0  0  0  0  0  0  0  0  0  0
   19.2553    3.6693    3.6477 C   0  0  0  0  0  0  0  0  0  0  0  0
   19.6864    4.8452    3.0205 C   0  0  0  0  0  0  0  0  0  0  0  0
   20.0797    5.8414    3.8758 C   0  0  0  0  0  0  0  0  0  0  0  0
   20.0606    5.7160    5.2656 C   0  0  0  0  0  0  0  0  0  0  0  0
   19.6862    4.9226    1.5762 C   0  0  0  0  0  0  0  0  0  0  0  0
   19.8860    6.0908    0.7273 C   0  0  0  0  0  0  0  0  0  0  0  0
   19.4842    3.8233    0.9231 O   0  0  0  0  0  0  0  0  0  0  0  0
   19.9456    5.8937   -0.6387 O   0  0  0  0  0  0  0  0  0  0  0  0
   18.9187    6.4063   -1.4401 C   0  0  0  0  0  0  0  0  0  0  0  0
   18.4349    5.7195   -2.5117 C   0  0  0  0  0  0  0  0  0  0  0  0
   17.4232    6.2481   -3.2834 C   0  0  0  0  0  0  0  0  0  0  0  0
   16.8479    7.4717   -3.0320 C   0  0  0  0  0  0  0  0  0  0  0  0
   17.3396    8.1654   -1.9461 C   0  0  0  0  0  0  0  0  0  0  0  0
   18.3609    7.6489   -1.1542 C   0  0  0  0  0  0  0  0  0  0  0  0
   15.7794    7.9948   -3.8694 C   0  0  0  0  0  0  0  0  0  0  0  0
   16.1622    9.1137   -4.7987 C   0  0  1  0  0  0  0  0  0  0  0  0
   16.1329    8.7595   -6.2258 C   0  0  0  0  0  0  0  0  0  0  0  0
   15.2909    7.7264   -6.6820 N   0  0  0  0  0  0  0  0  0  0  0  0
   16.8474    9.3626   -7.0520 O   0  0  0  0  0  0  0  0  0  0  0  0
   15.8248    6.5501   -7.3488 C   0  0  0  0  0  0  0  0  0  0  0  0
   15.4944   10.2979   -4.5234 O   0  0  0  0  0  0  0  0  0  0  0  0
   15.9733   11.3900   -5.1912 C   0  0  0  0  0  0  0  0  0  0  0  0
   15.6242   11.2332   -6.6573 C   0  0  0  0  0  0  0  0  0  0  0  0
   18.7753    2.2970    5.5134 O   0  0  0  0  0  0  0  0  0  0  0  0
   17.8750    2.1798    6.5767 C   0  0  0  0  0  0  0  0  0  0  0  0
   13.9499    7.8460   -6.4870 O   0  0  0  0  0  0  0  0  0  0  0  0
   13.5629    9.1750   -6.3823 C   0  0  0  0  0  0  0  0  0  0  0  0
 26 27  1  0
  2 26  1  0
 28 29  1  0
 20 28  1  0
  1  2  2  0
  2  3  1  0
  3  4  2  0
  4  5  1  0
  5  6  2  0
  6  1  1  0
  4  7  1  0
  7  8  1  0
  7  9  2  0
  8 10  1  0
 10 11  1  0
 11 12  2  0
 12 13  1  0
 13 14  2  0
 14 15  1  0
 15 16  2  0
 16 11  1  0
 14 17  1  0
 18 17  1  1
 18 19  1  0
 19 20  1  0
 19 21  2  0
 20 22  1  0
 18 23  1  0
 23 24  1  0
 24 25  1  0
M  STY  2   1 SUP   2 SUP
M  SLB  2   1   1   2   2
M  SAL   1  2  26  27
M  SBL   1  1   2
M  SMT   1 OCH3
M  SBV   1   2    0.7144    0.4125
M  SAL   2  2  28  29
M  SBL   2  1   4
M  SMT   2 OCH3
M  SBV   2   4   -0.7144   -0.4125
M  END
$$$$
