
     RDKit          3D

 29 30  0  2  0  0  0  0  0  0999 V2000
   20.7068    4.5884    6.9594 C   0  0  0  0  0  0  0  0  0  0  0  0
   20.2123    5.5208    6.0796 C   0  0  0  0  0  0  0  0  0  0  0  0
   19.8055    5.1317    4.8309 C   0  0  0  0  0  0  0  0  0  0  0  0
   19.8648    3.8052    4.3852 C   0  0  0  0  0  0  0  0  0  0  0  0
   20.3649    2.9141    5.2987 C   0  0  0  0  0  0  0  0  0  0  0  0
   20.7878    3.2777    6.5781 C   0  0  0  0  0  0  0  0  0  0  0  0
   19.4136    3.4823    3.0495 C   0  0  0  0  0  0  0  0  0  0  0  0
   19.3773    4.3376    1.8694 C   0  0  0  0  0  0  0  0  0  0  0  0
   18.9783    2.2805    2.8445 O   0  0  0  0  0  0  0  0  0  0  0  0
   18.1954    4.4058    1.1576 O   0  0  0  0  0  0  0  0  0  0  0  0
   18.1620    5.1538   -0.0252 C   0  0  0  0  0  0  0  0  0  0  0  0
   18.8339    6.3318   -0.1477 C   0  0  0  0  0  0  0  0  0  0  0  0
   18.7834    7.0475   -1.3239 C   0  0  0  0  0  0  0  0  0  0  0  0
   18.0710    6.6336   -2.4250 C   0  0  0  0  0  0  0  0  0  0  0  0
   17.3913    5.4402   -2.2985 C   0  0  0  0  0  0  0  0  0  0  0  0
   17.4295    4.7024   -1.1191 C   0  0  0  0  0  0  0  0  0  0  0  0
   18.0444    7.4169   -3.6507 C   0  0  0  0  0  0  0  0  0  0  0  0
   17.2488    8.6922   -3.5971 C   0  0  1  0  0  0  0  0  0  0  0  0
   17.2647    9.4749   -4.8422 C   0  0  0  0  0  0  0  0  0  0  0  0
   16.5685    9.0146   -5.9770 N   0  0  0  0  0  0  0  0  0  0  0  0
   17.8900   10.5521   -4.9156 O   0  0  0  0  0  0  0  0  0  0  0  0
   15.8070    9.9213   -6.8204 C   0  0  0  0  0  0  0  0  0  0  0  0
   15.9702    8.5111   -3.0907 O   0  0  0  0  0  0  0  0  0  0  0  0
   15.5263    9.5257   -2.2897 C   0  0  0  0  0  0  0  0  0  0  0  0
   14.5575   10.3684   -3.0941 C   0  0  0  0  0  0  0  0  0  0  0  0
   20.1040    6.8702    6.4067 O   0  0  0  0  0  0  0  0  0  0  0  0
   20.6669    7.4412    7.5522 C   0  0  0  0  0  0  0  0  0  0  0  0
   16.6191    7.6889   -6.2781 O   0  0  0  0  0  0  0  0  0  0  0  0
   17.3573    7.4518   -7.4296 C   0  0  0  0  0  0  0  0  0  0  0  0
 26 27  1  0
  2 26  1  0
 28 29  1  0
 20 28  1  0
  1  2  2  0
  2  3  1  0
  3  4  2  0
  4  5  1  0
  5  6  2  0
  6  1  1  0
  4  7  1  0
  7  8  1  0
  7  9  2  0
  8 10  1  0
 10 11  1  0
 11 12  2  0
 12 13  1  0
 13 14  2  0
 14 15  1  0
 15 16  2  0
 16 11  1  0
 14 17  1  0
 18 17  1  6
 18 19  1  0
 19 20  1  0
 19 21  2  0
 20 22  1  0
 18 23  1  0
 23 24  1  0
 24 25  1  0
M  STY  2   1 SUP   2 SUP
M  SLB  2   1   1   2   2
M  SAL   1  2  26  27
M  SBL   1  1   2
M  SMT   1 OCH3
M  SBV   1   2    0.7144    0.4125
M  SAL   2  2  28  29
M  SBL   2  1   4
M  SMT   2 OCH3
M  SBV   2   4   -0.7144   -0.4125
M  END
$$$$
