
     RDKit          3D

 29 30  0  2  0  0  0  0  0  0999 V2000
   19.6424    4.7558    6.7658 C   0  0  0  0  0  0  0  0  0  0  0  0
   19.2528    3.6387    6.0673 C   0  0  0  0  0  0  0  0  0  0  0  0
   19.2741    3.6488    4.6977 C   0  0  0  0  0  0  0  0  0  0  0  0
   19.6800    4.7592    3.9467 C   0  0  0  0  0  0  0  0  0  0  0  0
   20.0587    5.8474    4.6890 C   0  0  0  0  0  0  0  0  0  0  0  0
   20.0486    5.8697    6.0844 C   0  0  0  0  0  0  0  0  0  0  0  0
   19.6715    4.6831    2.5024 C   0  0  0  0  0  0  0  0  0  0  0  0
   19.9832    5.7274    1.5340 C   0  0  0  0  0  0  0  0  0  0  0  0
   19.3477    3.5484    1.9699 O   0  0  0  0  0  0  0  0  0  0  0  0
   20.1080    5.3616    0.2078 O   0  0  0  0  0  0  0  0  0  0  0  0
   19.5377    6.1797   -0.7746 C   0  0  0  0  0  0  0  0  0  0  0  0
   19.4073    5.7657   -2.0652 C   0  0  0  0  0  0  0  0  0  0  0  0
   18.8419    6.5921   -3.0118 C   0  0  0  0  0  0  0  0  0  0  0  0
   18.3829    7.8568   -2.7269 C   0  0  0  0  0  0  0  0  0  0  0  0
   18.5160    8.2738   -1.4190 C   0  0  0  0  0  0  0  0  0  0  0  0
   19.0843    7.4543   -0.4481 C   0  0  0  0  0  0  0  0  0  0  0  0
   17.7895    8.6987   -3.7543 C   0  0  0  0  0  0  0  0  0  0  0  0
   16.3265    8.4747   -4.0219 C   0  0  1  0  0  0  0  0  0  0  0  0
   15.4356    8.8802   -2.9242 C   0  0  0  0  0  0  0  0  0  0  0  0
   14.4019    8.0234   -2.4977 N   0  0  0  0  0  0  0  0  0  0  0  0
   15.5778    9.9814   -2.3552 O   0  0  0  0  0  0  0  0  0  0  0  0
   13.4273    8.4448   -1.5048 C   0  0  0  0  0  0  0  0  0  0  0  0
   15.9208    8.9649   -5.2544 O   0  0  0  0  0  0  0  0  0  0  0  0
   16.4653    8.3213   -6.3302 C   0  0  0  0  0  0  0  0  0  0  0  0
   17.3795    9.2950   -7.0457 C   0  0  0  0  0  0  0  0  0  0  0  0
   18.8288    2.4734    6.7014 O   0  0  0  0  0  0  0  0  0  0  0  0
   17.6571    2.3815    7.4588 C   0  0  0  0  0  0  0  0  0  0  0  0
   14.3267    6.7764   -3.0360 O   0  0  0  0  0  0  0  0  0  0  0  0
   13.6655    6.7832   -4.2566 C   0  0  0  0  0  0  0  0  0  0  0  0
 26 27  1  0
  2 26  1  0
 28 29  1  0
 20 28  1  0
  1  2  2  0
  2  3  1  0
  3  4  2  0
  4  5  1  0
  5  6  2  0
  6  1  1  0
  4  7  1  0
  7  8  1  0
  7  9  2  0
  8 10  1  0
 10 11  1  0
 11 12  2  0
 12 13  1  0
 13 14  2  0
 14 15  1  0
 15 16  2  0
 16 11  1  0
 14 17  1  0
 18 17  1  1
 18 19  1  0
 19 20  1  0
 19 21  2  0
 20 22  1  0
 18 23  1  0
 23 24  1  0
 24 25  1  0
M  STY  2   1 SUP   2 SUP
M  SLB  2   1   1   2   2
M  SAL   1  2  26  27
M  SBL   1  1   2
M  SMT   1 OCH3
M  SBV   1   2    0.7144    0.4125
M  SAL   2  2  28  29
M  SBL   2  1   4
M  SMT   2 OCH3
M  SBV   2   4   -0.7144   -0.4125
M  END
$$$$
