
     RDKit          3D

 29 30  0  2  0  0  0  0  0  0999 V2000
   20.6488    6.2917    5.0572 C   0  0  0  0  0  0  0  0  0  0  0  0
   20.3809    4.9643    4.8246 C   0  0  0  0  0  0  0  0  0  0  0  0
   19.7918    4.5834    3.6481 C   0  0  0  0  0  0  0  0  0  0  0  0
   19.4367    5.4900    2.6412 C   0  0  0  0  0  0  0  0  0  0  0  0
   19.7242    6.8006    2.9208 C   0  0  0  0  0  0  0  0  0  0  0  0
   20.3235    7.2216    4.1088 C   0  0  0  0  0  0  0  0  0  0  0  0
   18.8179    5.0006    1.4290 C   0  0  0  0  0  0  0  0  0  0  0  0
   18.5985    5.7040    0.1710 C   0  0  0  0  0  0  0  0  0  0  0  0
   18.3922    3.7780    1.4319 O   0  0  0  0  0  0  0  0  0  0  0  0
   18.0733    4.9870   -0.8865 O   0  0  0  0  0  0  0  0  0  0  0  0
   17.5164    5.6849   -1.9647 C   0  0  0  0  0  0  0  0  0  0  0  0
   16.2457    6.1725   -1.9236 C   0  0  0  0  0  0  0  0  0  0  0  0
   15.7230    6.8559   -2.9999 C   0  0  0  0  0  0  0  0  0  0  0  0
   16.4284    7.0865   -4.1577 C   0  0  0  0  0  0  0  0  0  0  0  0
   17.7152    6.5916   -4.1969 C   0  0  0  0  0  0  0  0  0  0  0  0
   18.2615    5.8988   -3.1206 C   0  0  0  0  0  0  0  0  0  0  0  0
   15.8417    7.8149   -5.2720 C   0  0  0  0  0  0  0  0  0  0  0  0
   16.2845    9.2438   -5.4276 C   0  0  1  0  0  0  0  0  0  0  0  0
   17.4849    9.4243   -6.2581 C   0  0  0  0  0  0  0  0  0  0  0  0
   17.3696    9.9222   -7.5708 N   0  0  0  0  0  0  0  0  0  0  0  0
   18.6181    9.1421   -5.8188 O   0  0  0  0  0  0  0  0  0  0  0  0
   18.5234   10.0217   -8.4495 C   0  0  0  0  0  0  0  0  0  0  0  0
   15.2492   10.0951   -5.7846 O   0  0  0  0  0  0  0  0  0  0  0  0
   15.1681   11.2370   -5.0378 C   0  0  0  0  0  0  0  0  0  0  0  0
   14.6360   10.8650   -3.6687 C   0  0  0  0  0  0  0  0  0  0  0  0
   20.6874    3.9690    5.7493 O   0  0  0  0  0  0  0  0  0  0  0  0
   21.7222    4.0672    6.6845 C   0  0  0  0  0  0  0  0  0  0  0  0
   16.1443   10.3150   -8.0124 O   0  0  0  0  0  0  0  0  0  0  0  0
   15.8207    9.7207   -9.2245 C   0  0  0  0  0  0  0  0  0  0  0  0
 26 27  1  0
  2 26  1  0
 28 29  1  0
 20 28  1  0
  1  2  2  0
  2  3  1  0
  3  4  2  0
  4  5  1  0
  5  6  2  0
  6  1  1  0
  4  7  1  0
  7  8  1  0
  7  9  2  0
  8 10  1  0
 10 11  1  0
 11 12  2  0
 12 13  1  0
 13 14  2  0
 14 15  1  0
 15 16  2  0
 16 11  1  0
 14 17  1  0
 18 17  1  6
 18 19  1  0
 19 20  1  0
 19 21  2  0
 20 22  1  0
 18 23  1  0
 23 24  1  0
 24 25  1  0
M  STY  2   1 SUP   2 SUP
M  SLB  2   1   1   2   2
M  SAL   1  2  26  27
M  SBL   1  1   2
M  SMT   1 OCH3
M  SBV   1   2    0.7144    0.4125
M  SAL   2  2  28  29
M  SBL   2  1   4
M  SMT   2 OCH3
M  SBV   2   4   -0.7144   -0.4125
M  END
$$$$
