
     RDKit          3D

 29 30  0  2  0  0  0  0  0  0999 V2000
   20.3615    4.0882    6.2579 C   0  0  0  0  0  0  0  0  0  0  0  0
   21.3102    3.5686    5.4106 C   0  0  0  0  0  0  0  0  0  0  0  0
   21.3232    3.9393    4.0920 C   0  0  0  0  0  0  0  0  0  0  0  0
   20.4030    4.8401    3.5409 C   0  0  0  0  0  0  0  0  0  0  0  0
   19.4780    5.3298    4.4259 C   0  0  0  0  0  0  0  0  0  0  0  0
   19.4374    4.9727    5.7745 C   0  0  0  0  0  0  0  0  0  0  0  0
   20.4895    5.1761    2.1368 C   0  0  0  0  0  0  0  0  0  0  0  0
   19.4366    5.6529    1.2484 C   0  0  0  0  0  0  0  0  0  0  0  0
   21.6439    5.0457    1.5656 O   0  0  0  0  0  0  0  0  0  0  0  0
   19.7684    5.9063   -0.0684 O   0  0  0  0  0  0  0  0  0  0  0  0
   18.7700    6.3527   -0.9422 C   0  0  0  0  0  0  0  0  0  0  0  0
   17.7410    7.1355   -0.5150 C   0  0  0  0  0  0  0  0  0  0  0  0
   16.7717    7.5606   -1.3972 C   0  0  0  0  0  0  0  0  0  0  0  0
   16.7761    7.2331   -2.7329 C   0  0  0  0  0  0  0  0  0  0  0  0
   17.8193    6.4401   -3.1631 C   0  0  0  0  0  0  0  0  0  0  0  0
   18.8082    6.0004   -2.2880 C   0  0  0  0  0  0  0  0  0  0  0  0
   15.7352    7.7039   -3.6336 C   0  0  0  0  0  0  0  0  0  0  0  0
   15.7906    9.1629   -3.9947 C   0  0  1  0  0  0  0  0  0  0  0  0
   17.0189    9.5734   -4.6918 C   0  0  0  0  0  0  0  0  0  0  0  0
   17.3920    8.9472   -5.8973 N   0  0  0  0  0  0  0  0  0  0  0  0
   17.7470   10.4763   -4.2321 O   0  0  0  0  0  0  0  0  0  0  0  0
   18.6861    9.1933   -6.5121 C   0  0  0  0  0  0  0  0  0  0  0  0
   14.6383    9.6081   -4.6257 O   0  0  0  0  0  0  0  0  0  0  0  0
   14.5795   10.9604   -4.8154 C   0  0  0  0  0  0  0  0  0  0  0  0
   14.3517   11.6134   -3.4672 C   0  0  0  0  0  0  0  0  0  0  0  0
   22.2782    2.6643    5.8404 O   0  0  0  0  0  0  0  0  0  0  0  0
   23.2338    2.0879    4.9981 C   0  0  0  0  0  0  0  0  0  0  0  0
   16.5109    8.0955   -6.4880 O   0  0  0  0  0  0  0  0  0  0  0  0
   15.8056    8.7145   -7.5109 C   0  0  0  0  0  0  0  0  0  0  0  0
 26 27  1  0
  2 26  1  0
 28 29  1  0
 20 28  1  0
  1  2  2  0
  2  3  1  0
  3  4  2  0
  4  5  1  0
  5  6  2  0
  6  1  1  0
  4  7  1  0
  7  8  1  0
  7  9  2  0
  8 10  1  0
 10 11  1  0
 11 12  2  0
 12 13  1  0
 13 14  2  0
 14 15  1  0
 15 16  2  0
 16 11  1  0
 14 17  1  0
 18 17  1  6
 18 19  1  0
 19 20  1  0
 19 21  2  0
 20 22  1  0
 18 23  1  0
 23 24  1  0
 24 25  1  0
M  STY  2   1 SUP   2 SUP
M  SLB  2   1   1   2   2
M  SAL   1  2  26  27
M  SBL   1  1   2
M  SMT   1 OCH3
M  SBV   1   2    0.7144    0.4125
M  SAL   2  2  28  29
M  SBL   2  1   4
M  SMT   2 OCH3
M  SBV   2   4   -0.7144   -0.4125
M  END
$$$$
