
     RDKit          3D

 29 30  0  2  0  0  0  0  0  0999 V2000
   19.2621    7.0359    2.8293 C   0  0  0  0  0  0  0  0  0  0  0  0
   18.5782    5.8698    2.5839 C   0  0  0  0  0  0  0  0  0  0  0  0
   18.3115    5.4942    1.2939 C   0  0  0  0  0  0  0  0  0  0  0  0
   18.7045    6.2476    0.1805 C   0  0  0  0  0  0  0  0  0  0  0  0
   19.3830    7.4009    0.4777 C   0  0  0  0  0  0  0  0  0  0  0  0
   19.6707    7.8118    1.7801 C   0  0  0  0  0  0  0  0  0  0  0  0
   18.3808    5.7762   -1.1480 C   0  0  0  0  0  0  0  0  0  0  0  0
   17.6013    6.4413   -2.1850 C   0  0  0  0  0  0  0  0  0  0  0  0
   18.8297    4.6111   -1.4899 O   0  0  0  0  0  0  0  0  0  0  0  0
   18.1409    7.5672   -2.7761 O   0  0  0  0  0  0  0  0  0  0  0  0
   17.9457    7.7688   -4.1476 C   0  0  0  0  0  0  0  0  0  0  0  0
   17.1576    6.9420   -4.8887 C   0  0  0  0  0  0  0  0  0  0  0  0
   16.9831    7.1642   -6.2373 C   0  0  0  0  0  0  0  0  0  0  0  0
   17.5760    8.2071   -6.9096 C   0  0  0  0  0  0  0  0  0  0  0  0
   18.3739    9.0432   -6.1568 C   0  0  0  0  0  0  0  0  0  0  0  0
   18.5629    8.8359   -4.7936 C   0  0  0  0  0  0  0  0  0  0  0  0
   17.3652    8.4097   -8.3347 C   0  0  0  0  0  0  0  0  0  0  0  0
   16.2740    9.3760   -8.7056 C   0  0  1  0  0  0  0  0  0  0  0  0
   16.0150    9.4802  -10.1496 C   0  0  0  0  0  0  0  0  0  0  0  0
   15.6707   10.7216  -10.7196 N   0  0  0  0  0  0  0  0  0  0  0  0
   16.0949    8.4793  -10.8902 O   0  0  0  0  0  0  0  0  0  0  0  0
   15.5454   11.9212   -9.9082 C   0  0  0  0  0  0  0  0  0  0  0  0
   15.1168    9.1965   -7.9621 O   0  0  0  0  0  0  0  0  0  0  0  0
   13.9574    9.3156   -8.6760 C   0  0  0  0  0  0  0  0  0  0  0  0
   13.0840    8.1198   -8.3548 C   0  0  0  0  0  0  0  0  0  0  0  0
   18.1353    5.0359    3.6077 O   0  0  0  0  0  0  0  0  0  0  0  0
   18.3867    5.2669    4.9636 C   0  0  0  0  0  0  0  0  0  0  0  0
   15.4536   10.7838  -12.0611 O   0  0  0  0  0  0  0  0  0  0  0  0
   16.5534   10.3364  -12.7804 C   0  0  0  0  0  0  0  0  0  0  0  0
 26 27  1  0
  2 26  1  0
 28 29  1  0
 20 28  1  0
  1  2  2  0
  2  3  1  0
  3  4  2  0
  4  5  1  0
  5  6  2  0
  6  1  1  0
  4  7  1  0
  7  8  1  0
  7  9  2  0
  8 10  1  0
 10 11  1  0
 11 12  2  0
 12 13  1  0
 13 14  2  0
 14 15  1  0
 15 16  2  0
 16 11  1  0
 14 17  1  0
 18 17  1  6
 18 19  1  0
 19 20  1  0
 19 21  2  0
 20 22  1  0
 18 23  1  0
 23 24  1  0
 24 25  1  0
M  STY  2   1 SUP   2 SUP
M  SLB  2   1   1   2   2
M  SAL   1  2  26  27
M  SBL   1  1   2
M  SMT   1 OCH3
M  SBV   1   2    0.7144    0.4125
M  SAL   2  2  28  29
M  SBL   2  1   4
M  SMT   2 OCH3
M  SBV   2   4   -0.7144   -0.4125
M  END
$$$$
