
     RDKit          3D

 29 30  0  2  0  0  0  0  0  0999 V2000
   19.7141    4.6568    4.8546 C   0  0  0  0  0  0  0  0  0  0  0  0
   19.3008    3.4966    4.2457 C   0  0  0  0  0  0  0  0  0  0  0  0
   18.9504    3.5088    2.9215 C   0  0  0  0  0  0  0  0  0  0  0  0
   18.9894    4.6637    2.1300 C   0  0  0  0  0  0  0  0  0  0  0  0
   19.4079    5.7938    2.7830 C   0  0  0  0  0  0  0  0  0  0  0  0
   19.7717    5.8152    4.1302 C   0  0  0  0  0  0  0  0  0  0  0  0
   18.6017    4.5863    0.7388 C   0  0  0  0  0  0  0  0  0  0  0  0
   18.1776    5.6621   -0.1491 C   0  0  0  0  0  0  0  0  0  0  0  0
   18.6246    3.4186    0.1805 O   0  0  0  0  0  0  0  0  0  0  0  0
   18.2661    5.4479   -1.5110 O   0  0  0  0  0  0  0  0  0  0  0  0
   18.0143    6.5161   -2.3800 C   0  0  0  0  0  0  0  0  0  0  0  0
   16.7901    7.1078   -2.4527 C   0  0  0  0  0  0  0  0  0  0  0  0
   16.5703    8.1578   -3.3174 C   0  0  0  0  0  0  0  0  0  0  0  0
   17.5445    8.6669   -4.1438 C   0  0  0  0  0  0  0  0  0  0  0  0
   18.7836    8.0658   -4.0683 C   0  0  0  0  0  0  0  0  0  0  0  0
   19.0260    7.0041   -3.2016 C   0  0  0  0  0  0  0  0  0  0  0  0
   17.2737    9.7789   -5.0419 C   0  0  0  0  0  0  0  0  0  0  0  0
   16.7229    9.4122   -6.3925 C   0  0  1  0  0  0  0  0  0  0  0  0
   16.4271   10.5596   -7.2637 C   0  0  0  0  0  0  0  0  0  0  0  0
   15.1327   11.1151   -7.2880 N   0  0  0  0  0  0  0  0  0  0  0  0
   17.3097   11.0581   -7.9911 O   0  0  0  0  0  0  0  0  0  0  0  0
   14.6794   11.9361   -8.3988 C   0  0  0  0  0  0  0  0  0  0  0  0
   17.4645    8.4285   -7.0301 O   0  0  0  0  0  0  0  0  0  0  0  0
   16.7877    7.7450   -8.0011 C   0  0  0  0  0  0  0  0  0  0  0  0
   15.9566    6.6725   -7.3266 C   0  0  0  0  0  0  0  0  0  0  0  0
   19.2203    2.2848    4.9274 O   0  0  0  0  0  0  0  0  0  0  0  0
   19.5967    2.1169    6.2635 C   0  0  0  0  0  0  0  0  0  0  0  0
   14.2992   10.8690   -6.2415 O   0  0  0  0  0  0  0  0  0  0  0  0
   14.6196   11.6458   -5.1365 C   0  0  0  0  0  0  0  0  0  0  0  0
 26 27  1  0
  2 26  1  0
 28 29  1  0
 20 28  1  0
  1  2  2  0
  2  3  1  0
  3  4  2  0
  4  5  1  0
  5  6  2  0
  6  1  1  0
  4  7  1  0
  7  8  1  0
  7  9  2  0
  8 10  1  0
 10 11  1  0
 11 12  2  0
 12 13  1  0
 13 14  2  0
 14 15  1  0
 15 16  2  0
 16 11  1  0
 14 17  1  0
 18 17  1  1
 18 19  1  0
 19 20  1  0
 19 21  2  0
 20 22  1  0
 18 23  1  0
 23 24  1  0
 24 25  1  0
M  STY  2   1 SUP   2 SUP
M  SLB  2   1   1   2   2
M  SAL   1  2  26  27
M  SBL   1  1   2
M  SMT   1 OCH3
M  SBV   1   2    0.7144    0.4125
M  SAL   2  2  28  29
M  SBL   2  1   4
M  SMT   2 OCH3
M  SBV   2   4   -0.7144   -0.4125
M  END
$$$$
