
     RDKit          3D

 29 30  0  2  0  0  0  0  0  0999 V2000
   23.5305    3.7612    4.3113 C   0  0  0  0  0  0  0  0  0  0  0  0
   22.3397    3.8833    4.9857 C   0  0  0  0  0  0  0  0  0  0  0  0
   21.2478    4.4134    4.3511 C   0  0  0  0  0  0  0  0  0  0  0  0
   21.2730    4.8501    3.0205 C   0  0  0  0  0  0  0  0  0  0  0  0
   22.4825    4.7072    2.3918 C   0  0  0  0  0  0  0  0  0  0  0  0
   23.6135    4.1714    3.0095 C   0  0  0  0  0  0  0  0  0  0  0  0
   20.0724    5.3978    2.4284 C   0  0  0  0  0  0  0  0  0  0  0  0
   19.8225    5.7480    1.0354 C   0  0  0  0  0  0  0  0  0  0  0  0
   19.0689    5.6170    3.2164 O   0  0  0  0  0  0  0  0  0  0  0  0
   18.5978    6.3029    0.7189 O   0  0  0  0  0  0  0  0  0  0  0  0
   18.2263    6.3954   -0.6276 C   0  0  0  0  0  0  0  0  0  0  0  0
   17.0106    5.9675   -1.0670 C   0  0  0  0  0  0  0  0  0  0  0  0
   16.6714    6.0706   -2.3984 C   0  0  0  0  0  0  0  0  0  0  0  0
   17.5133    6.5981   -3.3493 C   0  0  0  0  0  0  0  0  0  0  0  0
   18.7440    7.0309   -2.9019 C   0  0  0  0  0  0  0  0  0  0  0  0
   19.1058    6.9354   -1.5613 C   0  0  0  0  0  0  0  0  0  0  0  0
   17.1172    6.6921   -4.7461 C   0  0  0  0  0  0  0  0  0  0  0  0
   16.5272    8.0079   -5.1736 C   0  0  1  0  0  0  0  0  0  0  0  0
   16.0417    8.0375   -6.5616 C   0  0  0  0  0  0  0  0  0  0  0  0
   16.7111    8.8116   -7.5296 N   0  0  0  0  0  0  0  0  0  0  0  0
   15.0363    7.3830   -6.9044 O   0  0  0  0  0  0  0  0  0  0  0  0
   16.3272    8.7730   -8.9312 C   0  0  0  0  0  0  0  0  0  0  0  0
   15.6015    8.5052   -4.2681 O   0  0  0  0  0  0  0  0  0  0  0  0
   15.1974    9.7876   -4.5136 C   0  0  0  0  0  0  0  0  0  0  0  0
   16.0813   10.7196   -3.7098 C   0  0  0  0  0  0  0  0  0  0  0  0
   22.1899    3.4845    6.3117 O   0  0  0  0  0  0  0  0  0  0  0  0
   21.0385    3.7183    7.0696 C   0  0  0  0  0  0  0  0  0  0  0  0
   17.7382    9.6086   -7.1289 O   0  0  0  0  0  0  0  0  0  0  0  0
   18.9699    9.0768   -7.4854 C   0  0  0  0  0  0  0  0  0  0  0  0
 26 27  1  0
  2 26  1  0
 28 29  1  0
 20 28  1  0
  1  2  2  0
  2  3  1  0
  3  4  2  0
  4  5  1  0
  5  6  2  0
  6  1  1  0
  4  7  1  0
  7  8  1  0
  7  9  2  0
  8 10  1  0
 10 11  1  0
 11 12  2  0
 12 13  1  0
 13 14  2  0
 14 15  1  0
 15 16  2  0
 16 11  1  0
 14 17  1  0
 18 17  1  1
 18 19  1  0
 19 20  1  0
 19 21  2  0
 20 22  1  0
 18 23  1  0
 23 24  1  0
 24 25  1  0
M  STY  2   1 SUP   2 SUP
M  SLB  2   1   1   2   2
M  SAL   1  2  26  27
M  SBL   1  1   2
M  SMT   1 OCH3
M  SBV   1   2    0.7144    0.4125
M  SAL   2  2  28  29
M  SBL   2  1   4
M  SMT   2 OCH3
M  SBV   2   4   -0.7144   -0.4125
M  END
$$$$
