
     RDKit          3D

 29 30  0  2  0  0  0  0  0  0999 V2000
   19.6551    4.0420    3.0593 C   0  0  0  0  0  0  0  0  0  0  0  0
   19.0244    5.2414    3.2865 C   0  0  0  0  0  0  0  0  0  0  0  0
   18.7723    6.0884    2.2399 C   0  0  0  0  0  0  0  0  0  0  0  0
   19.1283    5.7973    0.9169 C   0  0  0  0  0  0  0  0  0  0  0  0
   19.7542    4.5905    0.7426 C   0  0  0  0  0  0  0  0  0  0  0  0
   20.0256    3.7052    1.7869 C   0  0  0  0  0  0  0  0  0  0  0  0
   18.8237    6.7499   -0.1280 C   0  0  0  0  0  0  0  0  0  0  0  0
   19.1430    6.6759   -1.5485 C   0  0  0  0  0  0  0  0  0  0  0  0
   18.1825    7.8212    0.2143 O   0  0  0  0  0  0  0  0  0  0  0  0
   19.1933    7.8580   -2.2614 O   0  0  0  0  0  0  0  0  0  0  0  0
   18.2677    8.0653   -3.2910 C   0  0  0  0  0  0  0  0  0  0  0  0
   17.5368    9.2109   -3.3781 C   0  0  0  0  0  0  0  0  0  0  0  0
   16.6325    9.3882   -4.4025 C   0  0  0  0  0  0  0  0  0  0  0  0
   16.4115    8.4471   -5.3806 C   0  0  0  0  0  0  0  0  0  0  0  0
   17.1529    7.2876   -5.2902 C   0  0  0  0  0  0  0  0  0  0  0  0
   18.0713    7.0892   -4.2634 C   0  0  0  0  0  0  0  0  0  0  0  0
   15.4490    8.6727   -6.4479 C   0  0  0  0  0  0  0  0  0  0  0  0
   16.0290    9.0116   -7.7936 C   0  0  1  0  0  0  0  0  0  0  0  0
   15.0919    9.6741   -8.7134 C   0  0  0  0  0  0  0  0  0  0  0  0
   14.1866    8.9089   -9.4745 N   0  0  0  0  0  0  0  0  0  0  0  0
   15.0817   10.9157   -8.8356 O   0  0  0  0  0  0  0  0  0  0  0  0
   13.8067    9.3004  -10.8220 C   0  0  0  0  0  0  0  0  0  0  0  0
   17.2508    9.6627   -7.7075 O   0  0  0  0  0  0  0  0  0  0  0  0
   18.0843    9.4516   -8.7699 C   0  0  0  0  0  0  0  0  0  0  0  0
   17.8266   10.5405   -9.7916 C   0  0  0  0  0  0  0  0  0  0  0  0
   18.6220    5.6428    4.5580 O   0  0  0  0  0  0  0  0  0  0  0  0
   19.2101    6.6965    5.2642 C   0  0  0  0  0  0  0  0  0  0  0  0
   13.6642    7.7804   -8.9230 O   0  0  0  0  0  0  0  0  0  0  0  0
   14.1199    6.6369   -9.5647 C   0  0  0  0  0  0  0  0  0  0  0  0
 26 27  1  0
  2 26  1  0
 28 29  1  0
 20 28  1  0
  1  2  2  0
  2  3  1  0
  3  4  2  0
  4  5  1  0
  5  6  2  0
  6  1  1  0
  4  7  1  0
  7  8  1  0
  7  9  2  0
  8 10  1  0
 10 11  1  0
 11 12  2  0
 12 13  1  0
 13 14  2  0
 14 15  1  0
 15 16  2  0
 16 11  1  0
 14 17  1  0
 18 17  1  1
 18 19  1  0
 19 20  1  0
 19 21  2  0
 20 22  1  0
 18 23  1  0
 23 24  1  0
 24 25  1  0
M  STY  2   1 SUP   2 SUP
M  SLB  2   1   1   2   2
M  SAL   1  2  26  27
M  SBL   1  1   2
M  SMT   1 OCH3
M  SBV   1   2    0.7144    0.4125
M  SAL   2  2  28  29
M  SBL   2  1   4
M  SMT   2 OCH3
M  SBV   2   4   -0.7144   -0.4125
M  END
$$$$
