
     RDKit          3D

 29 30  0  2  0  0  0  0  0  0999 V2000
   18.0382    7.7210   -5.4268 C   0  0  0  0  0  0  0  0  0  0  0  0
   16.8113    8.0450   -4.9001 C   0  0  0  0  0  0  0  0  0  0  0  0
   16.5370    7.7645   -3.5877 C   0  0  0  0  0  0  0  0  0  0  0  0
   17.4565    7.1509   -2.7277 C   0  0  0  0  0  0  0  0  0  0  0  0
   18.6645    6.8478   -3.3001 C   0  0  0  0  0  0  0  0  0  0  0  0
   18.9756    7.1200   -4.6331 C   0  0  0  0  0  0  0  0  0  0  0  0
   17.0831    6.8911   -1.3548 C   0  0  0  0  0  0  0  0  0  0  0  0
   17.8170    6.1495   -0.3366 C   0  0  0  0  0  0  0  0  0  0  0  0
   15.9510    7.3687   -0.9473 O   0  0  0  0  0  0  0  0  0  0  0  0
   17.7967    6.6353    0.9564 O   0  0  0  0  0  0  0  0  0  0  0  0
   18.6356    6.0486    1.9112 C   0  0  0  0  0  0  0  0  0  0  0  0
   18.6674    6.4830    3.2013 C   0  0  0  0  0  0  0  0  0  0  0  0
   19.5031    5.8868    4.1204 C   0  0  0  0  0  0  0  0  0  0  0  0
   20.3396    4.8411    3.8075 C   0  0  0  0  0  0  0  0  0  0  0  0
   20.3056    4.4029    2.5001 C   0  0  0  0  0  0  0  0  0  0  0  0
   19.4687    4.9916    1.5567 C   0  0  0  0  0  0  0  0  0  0  0  0
   21.2062    4.2364    4.8074 C   0  0  0  0  0  0  0  0  0  0  0  0
   20.5148    3.4378    5.8781 C   0  0  1  0  0  0  0  0  0  0  0  0
   19.5486    2.4496    5.3752 C   0  0  0  0  0  0  0  0  0  0  0  0
   18.3070    2.2817    6.0193 N   0  0  0  0  0  0  0  0  0  0  0  0
   19.8086    1.7475    4.3771 O   0  0  0  0  0  0  0  0  0  0  0  0
   17.6810    3.3671    6.7564 C   0  0  0  0  0  0  0  0  0  0  0  0
   21.3946    2.9059    6.8093 O   0  0  0  0  0  0  0  0  0  0  0  0
   21.8646    3.8040    7.7261 C   0  0  0  0  0  0  0  0  0  0  0  0
   20.6747    4.4035    8.4476 C   0  0  0  0  0  0  0  0  0  0  0  0
   15.8144    8.6579   -5.6552 O   0  0  0  0  0  0  0  0  0  0  0  0
   14.5186    8.8961   -5.1870 C   0  0  0  0  0  0  0  0  0  0  0  0
   17.6919    1.0709    5.9411 O   0  0  0  0  0  0  0  0  0  0  0  0
   18.3526    0.2146    5.0709 C   0  0  0  0  0  0  0  0  0  0  0  0
 26 27  1  0
  2 26  1  0
 28 29  1  0
 20 28  1  0
  1  2  2  0
  2  3  1  0
  3  4  2  0
  4  5  1  0
  5  6  2  0
  6  1  1  0
  4  7  1  0
  7  8  1  0
  7  9  2  0
  8 10  1  0
 10 11  1  0
 11 12  2  0
 12 13  1  0
 13 14  2  0
 14 15  1  0
 15 16  2  0
 16 11  1  0
 14 17  1  0
 18 17  1  6
 18 19  1  0
 19 20  1  0
 19 21  2  0
 20 22  1  0
 18 23  1  0
 23 24  1  0
 24 25  1  0
M  STY  2   1 SUP   2 SUP
M  SLB  2   1   1   2   2
M  SAL   1  2  26  27
M  SBL   1  1   2
M  SMT   1 OCH3
M  SBV   1   2    0.7144    0.4125
M  SAL   2  2  28  29
M  SBL   2  1   4
M  SMT   2 OCH3
M  SBV   2   4   -0.7144   -0.4125
M  END
$$$$
